1
Actelion Java MolfileCreator 2.0

  0  0  0  0  0  0              0 V3000
M  V30 BEGIN CTAB
M  V30 COUNTS 24 27 0 0 0
M  V30 BEGIN ATOM
M  V30 1 S 0.0 0.0 0.0 0
M  V30 2 C 0.8654 1.217 0.0 0
M  V30 3 C -1.4333 0.4732 0.0 0
M  V30 4 N -0.027 2.4475 0.0 0
M  V30 5 C 2.3393 1.0817 0.0 0
M  V30 6 C -2.745 -0.2704 0.0 0
M  V30 7 C -1.4468 1.9742 0.0 0
M  V30 8 C 3.056 -0.2163 0.0 0
M  V30 9 C 3.0966 2.3799 0.0 0
M  V30 10 C -4.0567 0.4868 0.0 0
M  V30 11 C -2.7991 -1.6902 0.0 0
M  V30 12 C -2.7585 2.7315 0.0 0
M  V30 13 C 4.5435 -0.2298 0.0 0
M  V30 14 C 4.584 2.3664 0.0 0
M  V30 15 O -5.3683 -0.2434 0.0 0
M  V30 16 C -4.0702 1.9877 0.0 0
M  V30 17 N -1.5685 -2.5692 0.0 0
M  V30 18 C 5.3007 1.0682 0.0 0
M  V30 19 C -0.2839 -1.839 0.0 0
M  V30 20 C -1.6091 -4.0431 0.0 0
M  V30 21 C 0.9871 -2.5827 0.0 0
M  V30 22 C -0.338 -4.8004 0.0 0
M  V30 23 C 0.9465 -4.0567 0.0 0
M  V30 24 C 2.6503 -3.9214 0.0 0
M  V30 END ATOM
M  V30 BEGIN BOND
M  V30 1 1 1 2
M  V30 2 1 1 3
M  V30 3 2 2 4
M  V30 4 1 2 5
M  V30 5 2 3 6
M  V30 6 1 3 7
M  V30 7 2 5 8
M  V30 8 1 5 9
M  V30 9 1 6 10
M  V30 10 1 6 11
M  V30 11 2 7 12
M  V30 12 1 8 13
M  V30 13 2 9 14
M  V30 14 1 10 15
M  V30 15 2 10 16
M  V30 16 1 11 17
M  V30 17 2 13 18
M  V30 18 1 17 19
M  V30 19 1 17 20
M  V30 20 1 19 21
M  V30 21 1 20 22
M  V30 22 1 21 23
M  V30 23 1 23 24
M  V30 24 1 4 7
M  V30 25 1 12 16
M  V30 26 1 14 18
M  V30 27 1 22 23
M  V30 END BOND
M  V30 END CTAB
M  END
>  <Molecule Name>
1

>  <Molecular Formula>
C20H22N2OS

>  <cLogP>
4.1713

$$$$
2
Actelion Java MolfileCreator 2.0

  0  0  0  0  0  0              0 V3000
M  V30 BEGIN CTAB
M  V30 COUNTS 26 29 0 0 0
M  V30 BEGIN ATOM
M  V30 1 S 0.0 0.0 0.0 0
M  V30 2 C 0.8649 1.2163 0.0 0
M  V30 3 C -1.4326 0.473 0.0 0
M  V30 4 N -0.027 2.4462 0.0 0
M  V30 5 C 2.3381 1.0812 0.0 0
M  V30 6 C -2.7436 -0.2703 0.0 0
M  V30 7 C -1.4461 1.9732 0.0 0
M  V30 8 C 3.0949 2.3786 0.0 0
M  V30 9 C 3.0544 -0.2162 0.0 0
M  V30 10 C -4.0545 0.4865 0.0 0
M  V30 11 C -2.7976 -1.6894 0.0 0
M  V30 12 C -2.7571 2.73 0.0 0
M  V30 13 C 4.5816 2.3651 0.0 0
M  V30 14 C 2.3651 3.7031 0.0 0
M  V30 15 C 4.5411 -0.2297 0.0 0
M  V30 16 O -5.3655 -0.2432 0.0 0
M  V30 17 C -4.068 1.9867 0.0 0
M  V30 18 N -1.5677 -2.5679 0.0 0
M  V30 19 C 5.2979 1.0677 0.0 0
M  V30 20 O 3.1355 5.0006 0.0 0
M  V30 21 C -0.2838 -1.838 0.0 0
M  V30 22 C -1.6083 -4.041 0.0 0
M  V30 23 C 0.9866 -2.5814 0.0 0
M  V30 24 C -0.3513 -4.7979 0.0 0
M  V30 25 C 0.946 -4.0545 0.0 0
M  V30 26 C 2.6489 -3.9194 0.0 0
M  V30 END ATOM
M  V30 BEGIN BOND
M  V30 1 1 1 2
M  V30 2 1 1 3
M  V30 3 2 2 4
M  V30 4 1 2 5
M  V30 5 2 3 6
M  V30 6 1 3 7
M  V30 7 2 5 8
M  V30 8 1 5 9
M  V30 9 1 6 10
M  V30 10 1 6 11
M  V30 11 2 7 12
M  V30 12 1 8 13
M  V30 13 1 8 14
M  V30 14 2 9 15
M  V30 15 1 10 16
M  V30 16 2 10 17
M  V30 17 1 11 18
M  V30 18 2 13 19
M  V30 19 1 14 20
M  V30 20 1 18 21
M  V30 21 1 18 22
M  V30 22 1 21 23
M  V30 23 1 22 24
M  V30 24 1 23 25
M  V30 25 1 25 26
M  V30 26 1 4 7
M  V30 27 1 12 17
M  V30 28 1 15 19
M  V30 29 1 24 25
M  V30 END BOND
M  V30 END CTAB
M  END
>  <Molecule Name>
2

>  <Molecular Formula>
C21H24N2O2S

>  <cLogP>
3.574

$$$$
3
Actelion Java MolfileCreator 2.0

  0  0  0  0  0  0              0 V3000
M  V30 BEGIN CTAB
M  V30 COUNTS 26 29 0 0 0
M  V30 BEGIN ATOM
M  V30 1 S 0.0 0.0 0.0 0
M  V30 2 C 0.8782 -1.1986 0.0 0
M  V30 3 C -1.4359 -0.4509 0.0 0
M  V30 4 N -0.0118 -2.4091 0.0 0
M  V30 5 C 2.3616 -1.0443 0.0 0
M  V30 6 C -2.7533 0.3204 0.0 0
M  V30 7 C -1.4478 -1.9344 0.0 0
M  V30 8 C 3.0856 0.2848 0.0 0
M  V30 9 C 3.133 -2.3142 0.0 0
M  V30 10 C -4.0706 -0.4153 0.0 0
M  V30 11 C -2.8126 1.792 0.0 0
M  V30 12 C -2.7651 -2.6702 0.0 0
M  V30 13 C 4.5809 0.3204 0.0 0
M  V30 14 C 4.6284 -2.2785 0.0 0
M  V30 15 O -5.3879 0.3441 0.0 0
M  V30 16 C -4.0824 -1.8988 0.0 0
M  V30 17 N -1.5784 2.6821 0.0 0
M  V30 18 C 5.3404 -0.9612 0.0 0
M  V30 19 C -0.2848 1.9581 0.0 0
M  V30 20 C -1.6021 4.1893 0.0 0
M  V30 21 C 6.8357 -0.9138 0.0 0
M  V30 22 C 0.9968 2.7177 0.0 0
M  V30 23 C -0.3204 4.9607 0.0 0
M  V30 24 O 7.5478 0.4272 0.0 0
M  V30 25 N 7.6071 -2.1836 0.0 0
M  V30 26 C 0.9731 4.2249 0.0 0
M  V30 END ATOM
M  V30 BEGIN BOND
M  V30 1 1 1 2
M  V30 2 1 1 3
M  V30 3 2 2 4
M  V30 4 1 2 5
M  V30 5 2 3 6
M  V30 6 1 3 7
M  V30 7 2 5 8
M  V30 8 1 5 9
M  V30 9 1 6 10
M  V30 10 1 6 11
M  V30 11 2 7 12
M  V30 12 1 8 13
M  V30 13 2 9 14
M  V30 14 1 10 15
M  V30 15 2 10 16
M  V30 16 1 11 17
M  V30 17 2 13 18
M  V30 18 1 17 19
M  V30 19 1 17 20
M  V30 20 1 18 21
M  V30 21 1 19 22
M  V30 22 1 20 23
M  V30 23 2 21 24
M  V30 24 1 21 25
M  V30 25 1 22 26
M  V30 26 1 4 7
M  V30 27 1 12 16
M  V30 28 1 14 18
M  V30 29 1 23 26
M  V30 END BOND
M  V30 END CTAB
M  END
>  <Molecule Name>
3

>  <Molecular Formula>
C20H21N3O2S

>  <cLogP>
2.9893

$$$$
4
Actelion Java MolfileCreator 2.0

  0  0  0  0  0  0              0 V3000
M  V30 BEGIN CTAB
M  V30 COUNTS 26 29 0 0 0
M  V30 BEGIN ATOM
M  V30 1 S 0.0 0.0 0.0 0
M  V30 2 C 0.8648 1.2162 0.0 0
M  V30 3 C -1.4324 0.4729 0.0 0
M  V30 4 N -0.027 2.4459 0.0 0
M  V30 5 C 2.3378 1.081 0.0 0
M  V30 6 C -2.7432 -0.2702 0.0 0
M  V30 7 C -1.4459 1.9729 0.0 0
M  V30 8 C 3.0945 2.3783 0.0 0
M  V30 9 C 3.054 -0.2162 0.0 0
M  V30 10 C -4.054 0.4864 0.0 0
M  V30 11 C -2.7973 -1.6891 0.0 0
M  V30 12 C -2.7567 2.7297 0.0 0
M  V30 13 C 4.581 2.3648 0.0 0
M  V30 14 C 2.3648 3.7027 0.0 0
M  V30 15 C 4.5405 -0.2297 0.0 0
M  V30 16 O -5.3648 -0.2432 0.0 0
M  V30 17 C -4.0675 1.9864 0.0 0
M  V30 18 N -1.5675 -2.5675 0.0 0
M  V30 19 C 5.2973 1.0675 0.0 0
M  V30 20 O 0.8513 3.7567 0.0 0
M  V30 21 C -0.2837 -1.8378 0.0 0
M  V30 22 C -1.6081 -4.0405 0.0 0
M  V30 23 C 0.9864 -2.581 0.0 0
M  V30 24 C -0.3378 -4.7973 0.0 0
M  V30 25 C 0.9459 -4.054 0.0 0
M  V30 26 C 2.6486 -3.9189 0.0 0
M  V30 END ATOM
M  V30 BEGIN BOND
M  V30 1 1 1 2
M  V30 2 1 1 3
M  V30 3 2 2 4
M  V30 4 1 2 5
M  V30 5 2 3 6
M  V30 6 1 3 7
M  V30 7 2 5 8
M  V30 8 1 5 9
M  V30 9 1 6 10
M  V30 10 1 6 11
M  V30 11 2 7 12
M  V30 12 1 8 13
M  V30 13 1 8 14
M  V30 14 2 9 15
M  V30 15 1 10 16
M  V30 16 2 10 17
M  V30 17 1 11 18
M  V30 18 2 13 19
M  V30 19 2 14 20
M  V30 20 1 18 21
M  V30 21 1 18 22
M  V30 22 1 21 23
M  V30 23 1 22 24
M  V30 24 1 23 25
M  V30 25 1 25 26
M  V30 26 1 4 7
M  V30 27 1 12 17
M  V30 28 1 15 19
M  V30 29 1 24 25
M  V30 END BOND
M  V30 END CTAB
M  END
>  <Molecule Name>
4

>  <Molecular Formula>
C21H22N2O2S

>  <cLogP>
4.1046

$$$$
5
Actelion Java MolfileCreator 2.0

  0  0  0  0  0  0              0 V3000
M  V30 BEGIN CTAB
M  V30 COUNTS 26 29 0 0 0
M  V30 BEGIN ATOM
M  V30 1 S 0.0 0.0 0.0 0
M  V30 2 C 0.8659 -1.1906 0.0 0
M  V30 3 C -1.4341 -0.4464 0.0 0
M  V30 4 N -0.027 -2.3947 0.0 0
M  V30 5 C 2.3406 -1.0282 0.0 0
M  V30 6 C -2.7465 0.3247 0.0 0
M  V30 7 C -1.4476 -1.9212 0.0 0
M  V30 8 C 3.0577 0.2976 0.0 0
M  V30 9 C 3.0983 -2.3 0.0 0
M  V30 10 C -4.0589 -0.4058 0.0 0
M  V30 11 C -2.8006 1.7723 0.0 0
M  V30 12 C -2.76 -2.6518 0.0 0
M  V30 13 C 4.5459 0.3382 0.0 0
M  V30 14 C 4.5865 -2.2594 0.0 0
M  V30 15 O -5.3712 0.3517 0.0 0
M  V30 16 C -4.0724 -1.8806 0.0 0
M  V30 17 N -1.5694 2.6788 0.0 0
M  V30 18 C 5.3036 -0.9335 0.0 0
M  V30 19 C -0.2841 1.9753 0.0 0
M  V30 20 C -1.61 4.1806 0.0 0
M  V30 21 C 6.7919 -0.8929 0.0 0
M  V30 22 C 0.9876 2.7465 0.0 0
M  V30 23 C -0.3517 4.9654 0.0 0
M  V30 24 O 7.5495 -2.1647 0.0 0
M  V30 25 C 0.947 4.2483 0.0 0
M  V30 26 C 2.6518 4.14 0.0 0
M  V30 END ATOM
M  V30 BEGIN BOND
M  V30 1 1 1 2
M  V30 2 1 1 3
M  V30 3 2 2 4
M  V30 4 1 2 5
M  V30 5 2 3 6
M  V30 6 1 3 7
M  V30 7 2 5 8
M  V30 8 1 5 9
M  V30 9 1 6 10
M  V30 10 1 6 11
M  V30 11 2 7 12
M  V30 12 1 8 13
M  V30 13 2 9 14
M  V30 14 1 10 15
M  V30 15 2 10 16
M  V30 16 1 11 17
M  V30 17 2 13 18
M  V30 18 1 17 19
M  V30 19 1 17 20
M  V30 20 1 18 21
M  V30 21 1 19 22
M  V30 22 1 20 23
M  V30 23 1 21 24
M  V30 24 1 22 25
M  V30 25 1 25 26
M  V30 26 1 4 7
M  V30 27 1 12 16
M  V30 28 1 14 18
M  V30 29 1 23 25
M  V30 END BOND
M  V30 END CTAB
M  END
>  <Molecule Name>
5

>  <Molecular Formula>
C21H24N2O2S

>  <cLogP>
3.574

$$$$
6
Actelion Java MolfileCreator 2.0

  0  0  0  0  0  0              0 V3000
M  V30 BEGIN CTAB
M  V30 COUNTS 26 29 0 0 0
M  V30 BEGIN ATOM
M  V30 1 S 0.0 0.0 0.0 0
M  V30 2 C 0.8654 1.217 0.0 0
M  V30 3 C -1.4334 0.4733 0.0 0
M  V30 4 N -0.027 2.4477 0.0 0
M  V30 5 C 2.3395 1.0818 0.0 0
M  V30 6 C -2.7452 -0.2704 0.0 0
M  V30 7 C -1.4469 1.9743 0.0 0
M  V30 8 C 3.0968 2.38 0.0 0
M  V30 9 C 3.0562 -0.2163 0.0 0
M  V30 10 C -4.0569 0.4868 0.0 0
M  V30 11 C -2.7993 -1.6904 0.0 0
M  V30 12 C -2.7587 2.7316 0.0 0
M  V30 13 C 4.5843 2.3665 0.0 0
M  V30 14 C 4.5438 -0.2298 0.0 0
M  V30 15 O -5.3687 -0.2434 0.0 0
M  V30 16 C -4.0704 1.9879 0.0 0
M  V30 17 N -1.5686 -2.5694 0.0 0
M  V30 18 C 5.3011 1.0683 0.0 0
M  V30 19 C 5.3551 3.6647 0.0 0
M  V30 20 C -0.2839 -1.8391 0.0 0
M  V30 21 C -1.6092 -4.0434 0.0 0
M  V30 22 O 6.8427 3.6512 0.0 0
M  V30 23 C 0.9871 -2.5829 0.0 0
M  V30 24 C -0.3516 -4.8007 0.0 0
M  V30 25 C 0.9466 -4.0569 0.0 0
M  V30 26 C 2.6505 -3.9217 0.0 0
M  V30 END ATOM
M  V30 BEGIN BOND
M  V30 1 1 1 2
M  V30 2 1 1 3
M  V30 3 2 2 4
M  V30 4 1 2 5
M  V30 5 2 3 6
M  V30 6 1 3 7
M  V30 7 2 5 8
M  V30 8 1 5 9
M  V30 9 1 6 10
M  V30 10 1 6 11
M  V30 11 2 7 12
M  V30 12 1 8 13
M  V30 13 2 9 14
M  V30 14 1 10 15
M  V30 15 2 10 16
M  V30 16 1 11 17
M  V30 17 2 13 18
M  V30 18 1 13 19
M  V30 19 1 17 20
M  V30 20 1 17 21
M  V30 21 1 19 22
M  V30 22 1 20 23
M  V30 23 1 21 24
M  V30 24 1 23 25
M  V30 25 1 25 26
M  V30 26 1 4 7
M  V30 27 1 12 16
M  V30 28 1 14 18
M  V30 29 1 24 25
M  V30 END BOND
M  V30 END CTAB
M  END
>  <Molecule Name>
6

>  <Molecular Formula>
C21H24N2O2S

>  <cLogP>
3.574

$$$$
7
Actelion Java MolfileCreator 2.0

  0  0  0  0  0  0              0 V3000
M  V30 BEGIN CTAB
M  V30 COUNTS 25 28 0 0 0
M  V30 BEGIN ATOM
M  V30 1 S 0.0 0.0 0.0 0
M  V30 2 C 0.8655 -1.1901 0.0 0
M  V30 3 C -1.4335 -0.4462 0.0 0
M  V30 4 N -0.027 -2.3937 0.0 0
M  V30 5 C 2.3396 -1.0278 0.0 0
M  V30 6 C -2.7453 0.3245 0.0 0
M  V30 7 C -1.447 -1.9204 0.0 0
M  V30 8 C 3.0969 -2.299 0.0 0
M  V30 9 C 3.0564 0.2975 0.0 0
M  V30 10 C -4.0571 -0.4057 0.0 0
M  V30 11 C -2.7994 1.7716 0.0 0
M  V30 12 C -2.7588 -2.6507 0.0 0
M  V30 13 C 4.5846 -2.2585 0.0 0
M  V30 14 C 4.544 0.338 0.0 0
M  V30 15 O -5.369 0.3516 0.0 0
M  V30 16 C -4.0707 -1.8798 0.0 0
M  V30 17 N -1.5687 2.6777 0.0 0
M  V30 18 O 5.3554 -3.5297 0.0 0
M  V30 19 C 5.3014 -0.9331 0.0 0
M  V30 20 C -0.284 1.9745 0.0 0
M  V30 21 C -1.6093 4.1789 0.0 0
M  V30 22 C 0.9872 2.7453 0.0 0
M  V30 23 C -0.338 4.9633 0.0 0
M  V30 24 C 0.9466 4.2465 0.0 0
M  V30 25 C 2.6507 4.1383 0.0 0
M  V30 END ATOM
M  V30 BEGIN BOND
M  V30 1 1 1 2
M  V30 2 1 1 3
M  V30 3 2 2 4
M  V30 4 1 2 5
M  V30 5 2 3 6
M  V30 6 1 3 7
M  V30 7 2 5 8
M  V30 8 1 5 9
M  V30 9 1 6 10
M  V30 10 1 6 11
M  V30 11 2 7 12
M  V30 12 1 8 13
M  V30 13 2 9 14
M  V30 14 1 10 15
M  V30 15 2 10 16
M  V30 16 1 11 17
M  V30 17 1 13 18
M  V30 18 2 13 19
M  V30 19 1 17 20
M  V30 20 1 17 21
M  V30 21 1 20 22
M  V30 22 1 21 23
M  V30 23 1 22 24
M  V30 24 1 24 25
M  V30 25 1 4 7
M  V30 26 1 12 16
M  V30 27 1 14 19
M  V30 28 1 23 24
M  V30 END BOND
M  V30 END CTAB
M  END
>  <Molecule Name>
7

>  <Molecular Formula>
C20H22N2O2S

>  <cLogP>
3.8256

$$$$
8
Actelion Java MolfileCreator 2.0

  0  0  0  0  0  0              0 V3000
M  V30 BEGIN CTAB
M  V30 COUNTS 25 28 0 0 0
M  V30 BEGIN ATOM
M  V30 1 S 0.0 0.0 0.0 0
M  V30 2 C 0.8656 1.2173 0.0 0
M  V30 3 C -1.4338 0.4734 0.0 0
M  V30 4 N -0.027 2.4482 0.0 0
M  V30 5 C 2.34 1.0821 0.0 0
M  V30 6 C -2.7458 -0.2705 0.0 0
M  V30 7 C -1.4473 1.9748 0.0 0
M  V30 8 C 3.0569 -0.2164 0.0 0
M  V30 9 C 3.0975 2.3806 0.0 0
M  V30 10 C -4.0579 0.4869 0.0 0
M  V30 11 C -2.7999 -1.6908 0.0 0
M  V30 12 C -2.7593 2.7323 0.0 0
M  V30 13 C 4.5448 -0.2299 0.0 0
M  V30 14 C 4.5854 2.3671 0.0 0
M  V30 15 O -5.3699 -0.2434 0.0 0
M  V30 16 C -4.0714 1.9883 0.0 0
M  V30 17 N -1.569 -2.57 0.0 0
M  V30 18 C 5.3023 1.0685 0.0 0
M  V30 19 C -0.284 -1.8395 0.0 0
M  V30 20 C -1.6096 -4.0443 0.0 0
M  V30 21 O 6.7902 1.055 0.0 0
M  V30 22 C 0.9874 -2.5835 0.0 0
M  V30 23 C -0.3381 -4.8018 0.0 0
M  V30 24 C 0.9468 -4.0579 0.0 0
M  V30 25 C 2.6511 -3.9226 0.0 0
M  V30 END ATOM
M  V30 BEGIN BOND
M  V30 1 1 1 2
M  V30 2 1 1 3
M  V30 3 2 2 4
M  V30 4 1 2 5
M  V30 5 2 3 6
M  V30 6 1 3 7
M  V30 7 2 5 8
M  V30 8 1 5 9
M  V30 9 1 6 10
M  V30 10 1 6 11
M  V30 11 2 7 12
M  V30 12 1 8 13
M  V30 13 2 9 14
M  V30 14 1 10 15
M  V30 15 2 10 16
M  V30 16 1 11 17
M  V30 17 2 13 18
M  V30 18 1 17 19
M  V30 19 1 17 20
M  V30 20 1 18 21
M  V30 21 1 19 22
M  V30 22 1 20 23
M  V30 23 1 22 24
M  V30 24 1 24 25
M  V30 25 1 4 7
M  V30 26 1 12 16
M  V30 27 1 14 18
M  V30 28 1 23 24
M  V30 END BOND
M  V30 END CTAB
M  END
>  <Molecule Name>
8

>  <Molecular Formula>
C20H22N2O2S

>  <cLogP>
3.8256

$$$$
11
Actelion Java MolfileCreator 2.0

  0  0  0  0  0  0              0 V3000
M  V30 BEGIN CTAB
M  V30 COUNTS 25 28 0 0 0
M  V30 BEGIN ATOM
M  V30 1 S 0.0 0.0 0.0 0
M  V30 2 C 0.8653 1.2169 0.0 0
M  V30 3 C -1.4332 0.4732 0.0 0
M  V30 4 N -0.027 2.4473 0.0 0
M  V30 5 C 2.3392 1.0817 0.0 0
M  V30 6 C -2.7448 -0.2704 0.0 0
M  V30 7 C -1.4467 1.9741 0.0 0
M  V30 8 C 3.0964 2.3797 0.0 0
M  V30 9 C 3.0558 -0.2163 0.0 0
M  V30 10 C -4.0564 0.4867 0.0 0
M  V30 11 C -2.7989 -1.6901 0.0 0
M  V30 12 C -2.7583 2.7313 0.0 0
M  V30 13 C 4.5837 2.3662 0.0 0
M  V30 14 C 4.5432 -0.2298 0.0 0
M  V30 15 O -5.368 -0.2433 0.0 0
M  V30 16 C -4.0699 1.9876 0.0 0
M  V30 17 N -1.5684 -2.569 0.0 0
M  V30 18 N 5.3409 3.6643 0.0 0
M  V30 19 C 5.3004 1.0681 0.0 0
M  V30 20 C -0.2839 -1.8389 0.0 0
M  V30 21 C -1.609 -4.0429 0.0 0
M  V30 22 C 0.987 -2.5825 0.0 0
M  V30 23 C -0.3515 -4.8001 0.0 0
M  V30 24 C 0.9465 -4.0564 0.0 0
M  V30 25 C 2.6502 -3.9212 0.0 0
M  V30 END ATOM
M  V30 BEGIN BOND
M  V30 1 1 1 2
M  V30 2 1 1 3
M  V30 3 2 2 4
M  V30 4 1 2 5
M  V30 5 2 3 6
M  V30 6 1 3 7
M  V30 7 2 5 8
M  V30 8 1 5 9
M  V30 9 1 6 10
M  V30 10 1 6 11
M  V30 11 2 7 12
M  V30 12 1 8 13
M  V30 13 2 9 14
M  V30 14 1 10 15
M  V30 15 2 10 16
M  V30 16 1 11 17
M  V30 17 1 13 18
M  V30 18 2 13 19
M  V30 19 1 17 20
M  V30 20 1 17 21
M  V30 21 1 20 22
M  V30 22 1 21 23
M  V30 23 1 22 24
M  V30 24 1 24 25
M  V30 25 1 4 7
M  V30 26 1 12 16
M  V30 27 1 14 19
M  V30 28 1 23 24
M  V30 END BOND
M  V30 END CTAB
M  END
>  <Molecule Name>
11

>  <Molecular Formula>
C20H23N3OS

>  <cLogP>
3.494

$$$$
12
Actelion Java MolfileCreator 2.0

  0  0  0  0  0  0              0 V3000
M  V30 BEGIN CTAB
M  V30 COUNTS 26 29 0 0 0
M  V30 BEGIN ATOM
M  V30 1 S 0.0 0.0 0.0 0
M  V30 2 C 0.8659 1.2177 0.0 0
M  V30 3 C -1.4341 0.4735 0.0 0
M  V30 4 N -0.027 2.4489 0.0 0
M  V30 5 C 2.3407 1.0824 0.0 0
M  V30 6 C -2.7466 -0.2706 0.0 0
M  V30 7 C -1.4477 1.9753 0.0 0
M  V30 8 C 3.0578 -0.2164 0.0 0
M  V30 9 C 3.0983 2.3812 0.0 0
M  V30 10 C -4.059 0.487 0.0 0
M  V30 11 C -2.8007 -1.6912 0.0 0
M  V30 12 C -2.7601 2.733 0.0 0
M  V30 13 C 4.5461 -0.23 0.0 0
M  V30 14 C 4.5867 2.3677 0.0 0
M  V30 15 O -5.3714 -0.2435 0.0 0
M  V30 16 C -4.0725 1.9889 0.0 0
M  V30 17 N -1.5694 -2.5707 0.0 0
M  V30 18 C 5.3038 1.0688 0.0 0
M  V30 19 C -0.2841 -1.84 0.0 0
M  V30 20 C -1.61 -4.0455 0.0 0
M  V30 21 C 6.7921 1.0553 0.0 0
M  V30 22 C 0.9876 -2.5842 0.0 0
M  V30 23 C -0.3382 -4.8031 0.0 0
M  V30 24 N 8.2804 1.0282 0.0 0
M  V30 25 C 0.9471 -4.059 0.0 0
M  V30 26 C 2.6519 -3.9237 0.0 0
M  V30 END ATOM
M  V30 BEGIN BOND
M  V30 1 1 1 2
M  V30 2 1 1 3
M  V30 3 2 2 4
M  V30 4 1 2 5
M  V30 5 2 3 6
M  V30 6 1 3 7
M  V30 7 2 5 8
M  V30 8 1 5 9
M  V30 9 1 6 10
M  V30 10 1 6 11
M  V30 11 2 7 12
M  V30 12 1 8 13
M  V30 13 2 9 14
M  V30 14 1 10 15
M  V30 15 2 10 16
M  V30 16 1 11 17
M  V30 17 2 13 18
M  V30 18 1 17 19
M  V30 19 1 17 20
M  V30 20 1 18 21
M  V30 21 1 19 22
M  V30 22 1 20 23
M  V30 23 3 21 24
M  V30 24 1 22 25
M  V30 25 1 25 26
M  V30 26 1 4 7
M  V30 27 1 12 16
M  V30 28 1 14 18
M  V30 29 1 23 25
M  V30 END BOND
M  V30 END CTAB
M  END
>  <Molecule Name>
12

>  <Molecular Formula>
C21H21N3OS

>  <cLogP>
4.0069

$$$$
13
Actelion Java MolfileCreator 2.0

  0  0  0  0  0  0              0 V3000
M  V30 BEGIN CTAB
M  V30 COUNTS 26 29 0 0 0
M  V30 BEGIN ATOM
M  V30 1 S 0.0 0.0 0.0 0
M  V30 2 C 0.865 1.2164 0.0 0
M  V30 3 C -1.4327 0.473 0.0 0
M  V30 4 N -0.027 2.4464 0.0 0
M  V30 5 C 2.3383 1.0813 0.0 0
M  V30 6 C -2.7438 -0.2703 0.0 0
M  V30 7 C -1.4462 1.9733 0.0 0
M  V30 8 C 3.0952 2.3788 0.0 0
M  V30 9 C 3.0546 -0.2162 0.0 0
M  V30 10 C -4.0548 0.4865 0.0 0
M  V30 11 C -2.7978 -1.6895 0.0 0
M  V30 12 C -2.7573 2.7302 0.0 0
M  V30 13 C 4.582 2.3653 0.0 0
M  V30 14 C 4.5414 -0.2297 0.0 0
M  V30 15 O -5.3659 -0.2432 0.0 0
M  V30 16 C -4.0684 1.9868 0.0 0
M  V30 17 N -1.5678 -2.568 0.0 0
M  V30 18 C 5.3524 3.6629 0.0 0
M  V30 19 C 5.2983 1.0677 0.0 0
M  V30 20 C -0.2838 -1.8382 0.0 0
M  V30 21 C -1.6084 -4.0413 0.0 0
M  V30 22 N 6.1228 4.9604 0.0 0
M  V30 23 C 0.9866 -2.5816 0.0 0
M  V30 24 C -0.3514 -4.7982 0.0 0
M  V30 25 C 0.9461 -4.0548 0.0 0
M  V30 26 C 2.6491 -3.9197 0.0 0
M  V30 END ATOM
M  V30 BEGIN BOND
M  V30 1 1 1 2
M  V30 2 1 1 3
M  V30 3 2 2 4
M  V30 4 1 2 5
M  V30 5 2 3 6
M  V30 6 1 3 7
M  V30 7 2 5 8
M  V30 8 1 5 9
M  V30 9 1 6 10
M  V30 10 1 6 11
M  V30 11 2 7 12
M  V30 12 1 8 13
M  V30 13 2 9 14
M  V30 14 1 10 15
M  V30 15 2 10 16
M  V30 16 1 11 17
M  V30 17 1 13 18
M  V30 18 2 13 19
M  V30 19 1 17 20
M  V30 20 1 17 21
M  V30 21 3 18 22
M  V30 22 1 20 23
M  V30 23 1 21 24
M  V30 24 1 23 25
M  V30 25 1 25 26
M  V30 26 1 4 7
M  V30 27 1 12 16
M  V30 28 1 14 19
M  V30 29 1 24 25
M  V30 END BOND
M  V30 END CTAB
M  END
>  <Molecule Name>
13

>  <Molecular Formula>
C21H21N3OS

>  <cLogP>
4.0069

$$$$
14
Actelion Java MolfileCreator 2.0

  0  0  0  0  0  0              0 V3000
M  V30 BEGIN CTAB
M  V30 COUNTS 26 29 0 0 0
M  V30 BEGIN ATOM
M  V30 1 S 0.0 0.0 0.0 0
M  V30 2 C 0.865 -1.1987 0.0 0
M  V30 3 C -1.4335 -0.4572 0.0 0
M  V30 4 N -0.0247 -2.3974 0.0 0
M  V30 5 C 2.348 -1.038 0.0 0
M  V30 6 C -2.7434 0.3089 0.0 0
M  V30 7 C -1.4458 -1.9402 0.0 0
M  V30 8 C 3.0648 0.2965 0.0 0
M  V30 9 C 3.1018 -2.3109 0.0 0
M  V30 10 C -4.0658 -0.4201 0.0 0
M  V30 11 C -2.7929 1.7177 0.0 0
M  V30 12 C -2.7558 -2.6693 0.0 0
M  V30 13 C 4.5477 0.3336 0.0 0
M  V30 14 C 4.5848 -2.2738 0.0 0
M  V30 15 O -5.3757 0.3336 0.0 0
M  V30 16 C -4.0781 -1.9031 0.0 0
M  V30 17 N -1.5447 2.6199 0.0 0
M  V30 18 C 5.3016 -0.9392 0.0 0
M  V30 19 C -1.6189 4.1152 0.0 0
M  V30 20 C -0.2471 1.9525 0.0 0
M  V30 21 O 6.7845 -0.9021 0.0 0
M  V30 22 C -0.3707 4.9308 0.0 0
M  V30 23 C 1.001 2.7682 0.0 0
M  V30 24 C 7.489 0.4201 0.0 0
M  V30 25 C 0.9392 4.2511 0.0 0
M  V30 26 C 1.6189 5.833 0.0 0
M  V30 END ATOM
M  V30 BEGIN BOND
M  V30 1 1 1 2
M  V30 2 1 1 3
M  V30 3 2 2 4
M  V30 4 1 2 5
M  V30 5 2 3 6
M  V30 6 1 3 7
M  V30 7 2 5 8
M  V30 8 1 5 9
M  V30 9 1 6 10
M  V30 10 1 6 11
M  V30 11 2 7 12
M  V30 12 1 8 13
M  V30 13 2 9 14
M  V30 14 1 10 15
M  V30 15 2 10 16
M  V30 16 1 11 17
M  V30 17 2 13 18
M  V30 18 1 17 19
M  V30 19 1 17 20
M  V30 20 1 18 21
M  V30 21 1 19 22
M  V30 22 1 20 23
M  V30 23 1 21 24
M  V30 24 1 22 25
M  V30 25 1 25 26
M  V30 26 1 4 7
M  V30 27 1 12 16
M  V30 28 1 14 18
M  V30 29 1 23 25
M  V30 END BOND
M  V30 END CTAB
M  END
>  <Molecule Name>
14

>  <Molecular Formula>
C21H24N2O2S

>  <cLogP>
4.1013

$$$$
15
Actelion Java MolfileCreator 2.0

  0  0  0  0  0  0              0 V3000
M  V30 BEGIN CTAB
M  V30 COUNTS 24 27 0 0 0
M  V30 BEGIN ATOM
M  V30 1 S 0.0 0.0 0.0 0
M  V30 2 C 0.8783 -1.1987 0.0 0
M  V30 3 C -1.4361 -0.451 0.0 0
M  V30 4 N -0.0118 -2.4093 0.0 0
M  V30 5 C 2.3619 -1.0444 0.0 0
M  V30 6 C -2.7535 0.3204 0.0 0
M  V30 7 C -1.448 -1.9346 0.0 0
M  V30 8 C 3.0859 0.2848 0.0 0
M  V30 9 C 3.1333 -2.3144 0.0 0
M  V30 10 C -4.071 -0.4154 0.0 0
M  V30 11 C -2.8129 1.7922 0.0 0
M  V30 12 C -2.7654 -2.6705 0.0 0
M  V30 13 C 4.5814 0.3204 0.0 0
M  V30 14 C 4.6288 -2.2788 0.0 0
M  V30 15 O -5.3884 0.3441 0.0 0
M  V30 16 C -4.0829 -1.899 0.0 0
M  V30 17 N -1.5785 2.6823 0.0 0
M  V30 18 C 5.341 -0.9613 0.0 0
M  V30 19 C -0.2848 1.9583 0.0 0
M  V30 20 C -1.6023 4.1897 0.0 0
M  V30 21 O 6.8365 -0.9139 0.0 0
M  V30 22 C 0.9969 2.7179 0.0 0
M  V30 23 C -0.3204 4.9612 0.0 0
M  V30 24 C 0.9732 4.2253 0.0 0
M  V30 END ATOM
M  V30 BEGIN BOND
M  V30 1 1 1 2
M  V30 2 1 1 3
M  V30 3 2 2 4
M  V30 4 1 2 5
M  V30 5 2 3 6
M  V30 6 1 3 7
M  V30 7 2 5 8
M  V30 8 1 5 9
M  V30 9 1 6 10
M  V30 10 1 6 11
M  V30 11 2 7 12
M  V30 12 1 8 13
M  V30 13 2 9 14
M  V30 14 1 10 15
M  V30 15 2 10 16
M  V30 16 1 11 17
M  V30 17 2 13 18
M  V30 18 1 17 19
M  V30 19 1 17 20
M  V30 20 1 18 21
M  V30 21 1 19 22
M  V30 22 1 20 23
M  V30 23 1 22 24
M  V30 24 1 4 7
M  V30 25 1 12 16
M  V30 26 1 14 18
M  V30 27 1 23 24
M  V30 END BOND
M  V30 END CTAB
M  END
>  <Molecule Name>
15

>  <Molecular Formula>
C19H20N2O2S

>  <cLogP>
3.5563

$$$$
16
Actelion Java MolfileCreator 2.0

  0  0  0  0  0  0              0 V3000
M  V30 BEGIN CTAB
M  V30 COUNTS 23 26 0 0 0
M  V30 BEGIN ATOM
M  V30 1 S 0.0 0.0 0.0 0
M  V30 2 C 0.8769 -1.2087 0.0 0
M  V30 3 C -1.4457 -0.4503 0.0 0
M  V30 4 N -0.0237 -2.4174 0.0 0
M  V30 5 C 2.3581 -1.0546 0.0 0
M  V30 6 C -2.761 0.3199 0.0 0
M  V30 7 C -1.4575 -1.9315 0.0 0
M  V30 8 C 3.081 0.2725 0.0 0
M  V30 9 C 3.1284 -2.3226 0.0 0
M  V30 10 C -4.0764 -0.4147 0.0 0
M  V30 11 C -2.8203 1.7893 0.0 0
M  V30 12 C -2.7729 -2.6662 0.0 0
M  V30 13 C 4.5741 0.3081 0.0 0
M  V30 14 C 4.6215 -2.287 0.0 0
M  V30 15 O -5.3917 0.3436 0.0 0
M  V30 16 C -4.0882 -1.9078 0.0 0
M  V30 17 N -1.5879 2.6781 0.0 0
M  V30 18 C 5.3325 -0.9717 0.0 0
M  V30 19 C -0.2962 1.9552 0.0 0
M  V30 20 C -1.6116 4.183 0.0 0
M  V30 21 C 0.9954 2.7136 0.0 0
M  V30 22 C -0.3318 4.9533 0.0 0
M  V30 23 C 0.9717 4.2186 0.0 0
M  V30 END ATOM
M  V30 BEGIN BOND
M  V30 1 1 1 2
M  V30 2 1 1 3
M  V30 3 2 2 4
M  V30 4 1 2 5
M  V30 5 2 3 6
M  V30 6 1 3 7
M  V30 7 2 5 8
M  V30 8 1 5 9
M  V30 9 1 6 10
M  V30 10 1 6 11
M  V30 11 2 7 12
M  V30 12 1 8 13
M  V30 13 2 9 14
M  V30 14 1 10 15
M  V30 15 2 10 16
M  V30 16 1 11 17
M  V30 17 2 13 18
M  V30 18 1 17 19
M  V30 19 1 17 20
M  V30 20 1 19 21
M  V30 21 1 20 22
M  V30 22 1 21 23
M  V30 23 1 4 7
M  V30 24 1 12 16
M  V30 25 1 14 18
M  V30 26 1 22 23
M  V30 END BOND
M  V30 END CTAB
M  END
>  <Molecule Name>
16

>  <Molecular Formula>
C19H20N2OS

>  <cLogP>
3.902

$$$$
17
Actelion Java MolfileCreator 2.0

  0  0  0  0  0  0              0 V3000
M  V30 BEGIN CTAB
M  V30 COUNTS 31 35 0 0 0
M  V30 BEGIN ATOM
M  V30 1 S 0.0 0.0 0.0 0
M  V30 2 C 0.8784 -1.1989 0.0 0
M  V30 3 C -1.4364 -0.4511 0.0 0
M  V30 4 N -0.0118 -2.4098 0.0 0
M  V30 5 C 2.3623 -1.0209 0.0 0
M  V30 6 C -2.7541 0.3205 0.0 0
M  V30 7 C -1.4482 -1.9349 0.0 0
M  V30 8 C 3.0983 0.3086 0.0 0
M  V30 9 C 3.1102 -2.3148 0.0 0
M  V30 10 C -4.0717 -0.4154 0.0 0
M  V30 11 C -2.8134 1.7806 0.0 0
M  V30 12 C -2.7659 -2.671 0.0 0
M  V30 13 C 4.5941 0.3205 0.0 0
M  V30 14 C 4.6059 -2.2911 0.0 0
M  V30 15 O -5.3894 0.3442 0.0 0
M  V30 16 C -4.0836 -1.9112 0.0 0
M  V30 17 N -1.5669 2.6828 0.0 0
M  V30 18 C 5.342 -0.9734 0.0 0
M  V30 19 C -0.273 1.9706 0.0 0
M  V30 20 C -1.6026 4.1905 0.0 0
M  V30 21 C 6.8258 -0.9259 0.0 0
M  V30 22 C 0.9971 2.7541 0.0 0
M  V30 23 C -0.3323 4.974 0.0 0
M  V30 24 O 7.5381 0.4154 0.0 0
M  V30 25 C 7.5975 -2.1842 0.0 0
M  V30 26 C 0.9615 4.2617 0.0 0
M  V30 27 C 6.8733 -3.5019 0.0 0
M  V30 28 C 9.0932 -2.1249 0.0 0
M  V30 29 C 7.6568 -4.7721 0.0 0
M  V30 30 C 9.8767 -3.3951 0.0 0
M  V30 31 C 9.1526 -4.7128 0.0 0
M  V30 END ATOM
M  V30 BEGIN BOND
M  V30 1 1 1 2
M  V30 2 1 1 3
M  V30 3 2 2 4
M  V30 4 1 2 5
M  V30 5 2 3 6
M  V30 6 1 3 7
M  V30 7 2 5 8
M  V30 8 1 5 9
M  V30 9 1 6 10
M  V30 10 1 6 11
M  V30 11 2 7 12
M  V30 12 1 8 13
M  V30 13 2 9 14
M  V30 14 1 10 15
M  V30 15 2 10 16
M  V30 16 1 11 17
M  V30 17 2 13 18
M  V30 18 1 17 19
M  V30 19 1 17 20
M  V30 20 1 18 21
M  V30 21 1 19 22
M  V30 22 1 20 23
M  V30 23 2 21 24
M  V30 24 1 21 25
M  V30 25 1 22 26
M  V30 26 2 25 27
M  V30 27 1 25 28
M  V30 28 1 27 29
M  V30 29 2 28 30
M  V30 30 2 29 31
M  V30 31 1 4 7
M  V30 32 1 12 16
M  V30 33 1 14 18
M  V30 34 1 23 26
M  V30 35 1 30 31
M  V30 END BOND
M  V30 END CTAB
M  END
>  <Molecule Name>
17

>  <Molecular Formula>
C26H24N2O2S

>  <cLogP>
5.032

$$$$
18
Actelion Java MolfileCreator 2.0

  0  0  0  0  0  0              0 V3000
M  V30 BEGIN CTAB
M  V30 COUNTS 24 27 0 0 0
M  V30 BEGIN ATOM
M  V30 1 S 0.0 0.0 0.0 0
M  V30 2 C 0.877 -1.197 0.0 0
M  V30 3 C -1.4459 -0.4503 0.0 0
M  V30 4 N -0.0118 -2.406 0.0 0
M  V30 5 C 2.3586 -1.043 0.0 0
M  V30 6 C -2.7615 0.32 0.0 0
M  V30 7 C -1.4578 -1.9319 0.0 0
M  V30 8 C 3.0815 0.2844 0.0 0
M  V30 9 C 3.129 -2.3111 0.0 0
M  V30 10 C -4.0771 -0.4148 0.0 0
M  V30 11 C -2.8208 1.7778 0.0 0
M  V30 12 C -2.7734 -2.6667 0.0 0
M  V30 13 C 4.5749 0.32 0.0 0
M  V30 14 C 4.6223 -2.2756 0.0 0
M  V30 15 O -5.3927 0.3437 0.0 0
M  V30 16 C -4.089 -1.8963 0.0 0
M  V30 17 N -1.5882 2.6667 0.0 0
M  V30 18 C 5.3335 -0.96 0.0 0
M  V30 19 C -0.2844 1.9556 0.0 0
M  V30 20 C -1.6237 4.1838 0.0 0
M  V30 21 O 6.8269 -0.9126 0.0 0
M  V30 22 C 0.9955 2.7378 0.0 0
M  V30 23 C -0.3437 4.9661 0.0 0
M  V30 24 O 0.96 4.2549 0.0 0
M  V30 END ATOM
M  V30 BEGIN BOND
M  V30 1 1 1 2
M  V30 2 1 1 3
M  V30 3 2 2 4
M  V30 4 1 2 5
M  V30 5 2 3 6
M  V30 6 1 3 7
M  V30 7 2 5 8
M  V30 8 1 5 9
M  V30 9 1 6 10
M  V30 10 1 6 11
M  V30 11 2 7 12
M  V30 12 1 8 13
M  V30 13 2 9 14
M  V30 14 1 10 15
M  V30 15 2 10 16
M  V30 16 1 11 17
M  V30 17 2 13 18
M  V30 18 1 17 19
M  V30 19 1 17 20
M  V30 20 1 18 21
M  V30 21 1 19 22
M  V30 22 1 20 23
M  V30 23 1 22 24
M  V30 24 1 4 7
M  V30 25 1 12 16
M  V30 26 1 14 18
M  V30 27 1 23 24
M  V30 END BOND
M  V30 END CTAB
M  END
>  <Molecule Name>
18

>  <Molecular Formula>
C18H18N2O3S

>  <cLogP>
2.3923

$$$$
19
Actelion Java MolfileCreator 2.0

  0  0  0  0  0  0              0 V3000
M  V30 BEGIN CTAB
M  V30 COUNTS 23 26 0 0 0
M  V30 BEGIN ATOM
M  V30 1 S 0.0 0.0 0.0 0
M  V30 2 C 0.876 -1.2074 0.0 0
M  V30 3 C -1.4442 -0.4498 0.0 0
M  V30 4 N -0.0118 -2.4149 0.0 0
M  V30 5 C 2.3557 -1.0535 0.0 0
M  V30 6 C -2.7582 0.3196 0.0 0
M  V30 7 C -1.456 -1.9296 0.0 0
M  V30 8 C 3.0779 0.2722 0.0 0
M  V30 9 C 3.1252 -2.3202 0.0 0
M  V30 10 C -4.0723 -0.4143 0.0 0
M  V30 11 C -2.8174 1.7875 0.0 0
M  V30 12 C -2.7701 -2.6635 0.0 0
M  V30 13 C 4.5695 0.3077 0.0 0
M  V30 14 C 4.6168 -2.2847 0.0 0
M  V30 15 O -5.3863 0.3433 0.0 0
M  V30 16 C -4.0841 -1.9059 0.0 0
M  V30 17 N -1.5744 2.6754 0.0 0
M  V30 18 C 5.3271 -0.9707 0.0 0
M  V30 19 C -0.2722 1.9651 0.0 0
M  V30 20 C -1.6099 4.1907 0.0 0
M  V30 21 C 1.0062 2.7464 0.0 0
M  V30 22 C -0.3314 4.972 0.0 0
M  V30 23 O 0.9707 4.2617 0.0 0
M  V30 END ATOM
M  V30 BEGIN BOND
M  V30 1 1 1 2
M  V30 2 1 1 3
M  V30 3 2 2 4
M  V30 4 1 2 5
M  V30 5 2 3 6
M  V30 6 1 3 7
M  V30 7 2 5 8
M  V30 8 1 5 9
M  V30 9 1 6 10
M  V30 10 1 6 11
M  V30 11 2 7 12
M  V30 12 1 8 13
M  V30 13 2 9 14
M  V30 14 1 10 15
M  V30 15 2 10 16
M  V30 16 1 11 17
M  V30 17 2 13 18
M  V30 18 1 17 19
M  V30 19 1 17 20
M  V30 20 1 19 21
M  V30 21 1 20 22
M  V30 22 1 21 23
M  V30 23 1 4 7
M  V30 24 1 12 16
M  V30 25 1 14 18
M  V30 26 1 22 23
M  V30 END BOND
M  V30 END CTAB
M  END
>  <Molecule Name>
19

>  <Molecular Formula>
C18H18N2O2S

>  <cLogP>
2.738

$$$$
21
Actelion Java MolfileCreator 2.0

  0  0  0  0  0  0              0 V3000
M  V30 BEGIN CTAB
M  V30 COUNTS 22 25 0 0 0
M  V30 BEGIN ATOM
M  V30 1 S 0.0 0.0 0.0 0
M  V30 2 C 0.8746 -1.1937 0.0 0
M  V30 3 C -1.4301 -0.4491 0.0 0
M  V30 4 N -0.0118 -2.3993 0.0 0
M  V30 5 C 2.3638 -1.1819 0.0 0
M  V30 6 C -2.742 0.3072 0.0 0
M  V30 7 C -1.4419 -1.9383 0.0 0
M  V30 8 C 3.0966 0.13 0.0 0
M  V30 9 C 3.0966 -2.4702 0.0 0
M  V30 10 C -4.0539 -0.4373 0.0 0
M  V30 11 C -2.7538 1.8201 0.0 0
M  V30 12 C -2.742 -2.6829 0.0 0
M  V30 13 C 4.5858 0.1418 0.0 0
M  V30 14 C 4.5858 -2.4583 0.0 0
M  V30 15 O -5.4132 0.1891 0.0 0
M  V30 16 C -4.0539 -1.9147 0.0 0
M  V30 17 N -4.0658 2.5884 0.0 0
M  V30 18 C 5.3186 -1.1464 0.0 0
M  V30 19 C -4.2312 4.0894 0.0 0
M  V30 20 C -5.4486 1.9974 0.0 0
M  V30 21 C -5.7086 4.4203 0.0 0
M  V30 22 C -6.4651 3.1202 0.0 0
M  V30 END ATOM
M  V30 BEGIN BOND
M  V30 1 1 1 2
M  V30 2 1 1 3
M  V30 3 2 2 4
M  V30 4 1 2 5
M  V30 5 2 3 6
M  V30 6 1 3 7
M  V30 7 2 5 8
M  V30 8 1 5 9
M  V30 9 1 6 10
M  V30 10 1 6 11
M  V30 11 2 7 12
M  V30 12 1 8 13
M  V30 13 2 9 14
M  V30 14 1 10 15
M  V30 15 2 10 16
M  V30 16 1 11 17
M  V30 17 2 13 18
M  V30 18 1 17 19
M  V30 19 1 17 20
M  V30 20 1 19 21
M  V30 21 1 20 22
M  V30 22 1 4 7
M  V30 23 1 12 16
M  V30 24 1 14 18
M  V30 25 1 21 22
M  V30 END BOND
M  V30 END CTAB
M  END
>  <Molecule Name>
21

>  <Molecular Formula>
C18H18N2OS

>  <cLogP>
3.56

$$$$
22
Actelion Java MolfileCreator 2.0

  0  0  0  0  0  0              0 V3000
M  V30 BEGIN CTAB
M  V30 COUNTS 23 26 0 0 0
M  V30 BEGIN ATOM
M  V30 1 S 0.0 0.0 0.0 0
M  V30 2 C 0.8748 -1.194 0.0 0
M  V30 3 C -1.4305 -0.4492 0.0 0
M  V30 4 N -0.0118 -2.3999 0.0 0
M  V30 5 C 2.3644 -1.1822 0.0 0
M  V30 6 C -2.7428 0.3073 0.0 0
M  V30 7 C -1.4423 -1.9388 0.0 0
M  V30 8 C 3.0974 0.13 0.0 0
M  V30 9 C 3.0974 -2.4708 0.0 0
M  V30 10 C -4.0551 -0.4374 0.0 0
M  V30 11 C -2.7546 1.8206 0.0 0
M  V30 12 C -2.7546 -2.6836 0.0 0
M  V30 13 C 4.5871 0.1418 0.0 0
M  V30 14 C 4.5871 -2.459 0.0 0
M  V30 15 O -5.4146 0.1891 0.0 0
M  V30 16 C -4.0551 -1.9152 0.0 0
M  V30 17 N -4.0669 2.5891 0.0 0
M  V30 18 C 5.3201 -1.1467 0.0 0
M  V30 19 C -4.2324 4.0905 0.0 0
M  V30 20 C -5.4501 1.9979 0.0 0
M  V30 21 O 6.8097 -1.1349 0.0 0
M  V30 22 C -5.7102 4.4215 0.0 0
M  V30 23 C -6.4668 3.1211 0.0 0
M  V30 END ATOM
M  V30 BEGIN BOND
M  V30 1 1 1 2
M  V30 2 1 1 3
M  V30 3 2 2 4
M  V30 4 1 2 5
M  V30 5 2 3 6
M  V30 6 1 3 7
M  V30 7 2 5 8
M  V30 8 1 5 9
M  V30 9 1 6 10
M  V30 10 1 6 11
M  V30 11 2 7 12
M  V30 12 1 8 13
M  V30 13 2 9 14
M  V30 14 1 10 15
M  V30 15 2 10 16
M  V30 16 1 11 17
M  V30 17 2 13 18
M  V30 18 1 17 19
M  V30 19 1 17 20
M  V30 20 1 18 21
M  V30 21 1 19 22
M  V30 22 1 20 23
M  V30 23 1 4 7
M  V30 24 1 12 16
M  V30 25 1 14 18
M  V30 26 1 22 23
M  V30 END BOND
M  V30 END CTAB
M  END
>  <Molecule Name>
22

>  <Molecular Formula>
C18H18N2O2S

>  <cLogP>
3.2143

$$$$
23
Actelion Java MolfileCreator 2.0

  0  0  0  0  0  0              0 V3000
M  V30 BEGIN CTAB
M  V30 COUNTS 27 30 0 0 0
M  V30 BEGIN ATOM
M  V30 1 S 0.0 0.0 0.0 0
M  V30 2 C 0.8667 -1.1991 0.0 0
M  V30 3 C -1.4365 -0.4511 0.0 0
M  V30 4 N -0.0237 -2.4101 0.0 0
M  V30 5 C 2.3507 -1.0447 0.0 0
M  V30 6 C -2.7544 0.3205 0.0 0
M  V30 7 C -1.4484 -1.9352 0.0 0
M  V30 8 C 3.075 0.2849 0.0 0
M  V30 9 C 3.1106 -2.3151 0.0 0
M  V30 10 C -4.0723 -0.4036 0.0 0
M  V30 11 C -2.8138 1.7927 0.0 0
M  V30 12 C -2.7663 -2.6713 0.0 0
M  V30 13 C 4.5709 0.3205 0.0 0
M  V30 14 C 4.6065 -2.2795 0.0 0
M  V30 15 O -5.3901 0.3561 0.0 0
M  V30 16 C -4.0841 -1.8877 0.0 0
M  V30 17 N -1.579 2.6832 0.0 0
M  V30 18 C 5.3308 -0.9616 0.0 0
M  V30 19 C -0.2849 1.9589 0.0 0
M  V30 20 C -1.6028 4.191 0.0 0
M  V30 21 C 6.8267 -0.9141 0.0 0
M  V30 22 C 0.9973 2.7188 0.0 0
M  V30 23 C -0.3205 4.9627 0.0 0
M  V30 24 F 6.7792 0.6055 0.0 0
M  V30 25 F 8.0971 -0.1187 0.0 0
M  V30 26 F 7.5984 -2.1845 0.0 0
M  V30 27 C 0.9735 4.2266 0.0 0
M  V30 END ATOM
M  V30 BEGIN BOND
M  V30 1 1 1 2
M  V30 2 1 1 3
M  V30 3 2 2 4
M  V30 4 1 2 5
M  V30 5 2 3 6
M  V30 6 1 3 7
M  V30 7 2 5 8
M  V30 8 1 5 9
M  V30 9 1 6 10
M  V30 10 1 6 11
M  V30 11 2 7 12
M  V30 12 1 8 13
M  V30 13 2 9 14
M  V30 14 1 10 15
M  V30 15 2 10 16
M  V30 16 1 11 17
M  V30 17 2 13 18
M  V30 18 1 17 19
M  V30 19 1 17 20
M  V30 20 1 18 21
M  V30 21 1 19 22
M  V30 22 1 20 23
M  V30 23 1 21 24
M  V30 24 1 21 25
M  V30 25 1 21 26
M  V30 26 1 22 27
M  V30 27 1 4 7
M  V30 28 1 12 16
M  V30 29 1 14 18
M  V30 30 1 23 27
M  V30 END BOND
M  V30 END CTAB
M  END
>  <Molecule Name>
23

>  <Molecular Formula>
C20H19N2OF3S

>  <cLogP>
4.7503

$$$$
24
Actelion Java MolfileCreator 2.0

  0  0  0  0  0  0              0 V3000
M  V30 BEGIN CTAB
M  V30 COUNTS 28 31 0 0 0
M  V30 BEGIN ATOM
M  V30 1 S 0.0 0.0 0.0 0
M  V30 2 C 0.8655 -1.1901 0.0 0
M  V30 3 C -1.4336 -0.4463 0.0 0
M  V30 4 N -0.027 -2.3938 0.0 0
M  V30 5 C 2.3397 -1.0278 0.0 0
M  V30 6 C -2.7454 0.3245 0.0 0
M  V30 7 C -1.4471 -1.9204 0.0 0
M  V30 8 C 3.0565 0.2975 0.0 0
M  V30 9 C 3.0971 -2.2991 0.0 0
M  V30 10 C -4.0573 -0.4057 0.0 0
M  V30 11 C -2.7995 1.7717 0.0 0
M  V30 12 C -2.759 -2.6508 0.0 0
M  V30 13 C 4.5442 0.3381 0.0 0
M  V30 14 C 4.5848 -2.2586 0.0 0
M  V30 15 O -5.3692 0.3516 0.0 0
M  V30 16 C -4.0709 -1.8799 0.0 0
M  V30 17 N -1.5688 2.6778 0.0 0
M  V30 18 C 5.3016 -0.9331 0.0 0
M  V30 19 C -0.284 1.9745 0.0 0
M  V30 20 C -1.6094 4.1791 0.0 0
M  V30 21 C 6.7893 -0.8791 0.0 0
M  V30 22 C 0.9872 2.7454 0.0 0
M  V30 23 C -0.3381 4.9635 0.0 0
M  V30 24 F 6.7487 0.6356 0.0 0
M  V30 25 F 8.0606 -0.0811 0.0 0
M  V30 26 F 7.5467 -2.1504 0.0 0
M  V30 27 C 0.9467 4.2467 0.0 0
M  V30 28 C 2.6508 4.1385 0.0 0
M  V30 END ATOM
M  V30 BEGIN BOND
M  V30 1 1 1 2
M  V30 2 1 1 3
M  V30 3 2 2 4
M  V30 4 1 2 5
M  V30 5 2 3 6
M  V30 6 1 3 7
M  V30 7 2 5 8
M  V30 8 1 5 9
M  V30 9 1 6 10
M  V30 10 1 6 11
M  V30 11 2 7 12
M  V30 12 1 8 13
M  V30 13 2 9 14
M  V30 14 1 10 15
M  V30 15 2 10 16
M  V30 16 1 11 17
M  V30 17 2 13 18
M  V30 18 1 17 19
M  V30 19 1 17 20
M  V30 20 1 18 21
M  V30 21 1 19 22
M  V30 22 1 20 23
M  V30 23 1 21 24
M  V30 24 1 21 25
M  V30 25 1 21 26
M  V30 26 1 22 27
M  V30 27 1 27 28
M  V30 28 1 4 7
M  V30 29 1 12 16
M  V30 30 1 14 18
M  V30 31 1 23 27
M  V30 END BOND
M  V30 END CTAB
M  END
>  <Molecule Name>
24

>  <Molecular Formula>
C21H21N2OF3S

>  <cLogP>
5.0196

$$$$
25
Actelion Java MolfileCreator 2.0

  0  0  0  0  0  0              0 V3000
M  V30 BEGIN CTAB
M  V30 COUNTS 21 24 0 0 0
M  V30 BEGIN ATOM
M  V30 1 S 0.0 0.0 0.0 0
M  V30 2 C 0.8751 -1.2063 0.0 0
M  V30 3 C -1.4428 -0.4494 0.0 0
M  V30 4 N -0.0118 -2.4126 0.0 0
M  V30 5 C 2.3653 -1.1944 0.0 0
M  V30 6 C -2.7555 0.3074 0.0 0
M  V30 7 C -1.4546 -1.9395 0.0 0
M  V30 8 C 3.1103 0.1182 0.0 0
M  V30 9 C 3.1103 -2.4835 0.0 0
M  V30 10 C -4.0683 -0.4257 0.0 0
M  V30 11 C -2.7555 1.7976 0.0 0
M  V30 12 C -2.7674 -2.6846 0.0 0
M  V30 13 C 4.6005 0.13 0.0 0
M  V30 14 C 4.6005 -2.4717 0.0 0
M  V30 15 O -5.381 0.3311 0.0 0
M  V30 16 C -4.0801 -1.9159 0.0 0
M  V30 17 N -1.4664 2.5663 0.0 0
M  V30 18 C 5.3337 -1.159 0.0 0
M  V30 19 C -0.0118 2.2352 0.0 0
M  V30 20 C -1.1353 4.0328 0.0 0
M  V30 21 C 0.3193 3.7017 0.0 0
M  V30 END ATOM
M  V30 BEGIN BOND
M  V30 1 1 1 2
M  V30 2 1 1 3
M  V30 3 2 2 4
M  V30 4 1 2 5
M  V30 5 2 3 6
M  V30 6 1 3 7
M  V30 7 2 5 8
M  V30 8 1 5 9
M  V30 9 1 6 10
M  V30 10 1 6 11
M  V30 11 2 7 12
M  V30 12 1 8 13
M  V30 13 2 9 14
M  V30 14 1 10 15
M  V30 15 2 10 16
M  V30 16 1 11 17
M  V30 17 2 13 18
M  V30 18 1 17 19
M  V30 19 1 17 20
M  V30 20 1 19 21
M  V30 21 1 4 7
M  V30 22 1 12 16
M  V30 23 1 14 18
M  V30 24 1 20 21
M  V30 END BOND
M  V30 END CTAB
M  END
>  <Molecule Name>
25

>  <Molecular Formula>
C17H16N2OS

>  <cLogP>
3.218

$$$$
26
Actelion Java MolfileCreator 2.0

  0  0  0  0  0  0              0 V3000
M  V30 BEGIN CTAB
M  V30 COUNTS 25 28 0 0 0
M  V30 BEGIN ATOM
M  V30 1 S 0.0 0.0 0.0 0
M  V30 2 C 0.8785 -1.1991 0.0 0
M  V30 3 C -1.4366 -0.4511 0.0 0
M  V30 4 N -0.0118 -2.4101 0.0 0
M  V30 5 C 2.3627 -1.0448 0.0 0
M  V30 6 C -2.7545 0.3205 0.0 0
M  V30 7 C -1.4484 -1.9352 0.0 0
M  V30 8 C 3.0869 0.2849 0.0 0
M  V30 9 C 3.1344 -2.3152 0.0 0
M  V30 10 C -4.0724 -0.4155 0.0 0
M  V30 11 C -2.8138 1.7928 0.0 0
M  V30 12 C -2.7663 -2.6714 0.0 0
M  V30 13 C 4.5829 0.3205 0.0 0
M  V30 14 C 4.6304 -2.2795 0.0 0
M  V30 15 O -5.3902 0.3443 0.0 0
M  V30 16 C -4.0842 -1.8996 0.0 0
M  V30 17 N -1.579 2.6832 0.0 0
M  V30 18 C 5.3428 -0.9617 0.0 0
M  V30 19 C -0.2849 1.959 0.0 0
M  V30 20 C -1.6028 4.1911 0.0 0
M  V30 21 C 6.8387 -0.9142 0.0 0
M  V30 22 C 0.9973 2.7188 0.0 0
M  V30 23 C -0.3205 4.9628 0.0 0
M  V30 24 O 7.6105 -2.1846 0.0 0
M  V30 25 C 0.9735 4.2267 0.0 0
M  V30 END ATOM
M  V30 BEGIN BOND
M  V30 1 1 1 2
M  V30 2 1 1 3
M  V30 3 2 2 4
M  V30 4 1 2 5
M  V30 5 2 3 6
M  V30 6 1 3 7
M  V30 7 2 5 8
M  V30 8 1 5 9
M  V30 9 1 6 10
M  V30 10 1 6 11
M  V30 11 2 7 12
M  V30 12 1 8 13
M  V30 13 2 9 14
M  V30 14 1 10 15
M  V30 15 2 10 16
M  V30 16 1 11 17
M  V30 17 2 13 18
M  V30 18 1 17 19
M  V30 19 1 17 20
M  V30 20 1 18 21
M  V30 21 1 19 22
M  V30 22 1 20 23
M  V30 23 1 21 24
M  V30 24 1 22 25
M  V30 25 1 4 7
M  V30 26 1 12 16
M  V30 27 1 14 18
M  V30 28 1 23 25
M  V30 END BOND
M  V30 END CTAB
M  END
>  <Molecule Name>
26

>  <Molecular Formula>
C20H22N2O2S

>  <cLogP>
3.3047

$$$$
27
Actelion Java MolfileCreator 2.0

  0  0  0  0  0  0              0 V3000
M  V30 BEGIN CTAB
M  V30 COUNTS 24 27 0 0 0
M  V30 BEGIN ATOM
M  V30 1 S 0.0 0.0 0.0 0
M  V30 2 C 0.8773 -1.2093 0.0 0
M  V30 3 C -1.4465 -0.4505 0.0 0
M  V30 4 N -0.0118 -2.4187 0.0 0
M  V30 5 C 2.3594 -1.0552 0.0 0
M  V30 6 C -2.7626 0.3201 0.0 0
M  V30 7 C -1.4583 -1.9326 0.0 0
M  V30 8 C 3.1301 -2.3239 0.0 0
M  V30 9 C 3.0827 0.2727 0.0 0
M  V30 10 C -4.0786 -0.4149 0.0 0
M  V30 11 C -2.8218 1.7903 0.0 0
M  V30 12 C -2.7744 -2.6677 0.0 0
M  V30 13 C 4.624 -2.2883 0.0 0
M  V30 14 C 4.5766 0.3082 0.0 0
M  V30 15 O -5.3947 0.3438 0.0 0
M  V30 16 C -4.0905 -1.9089 0.0 0
M  V30 17 N -1.5887 2.6796 0.0 0
M  V30 18 N 5.3947 -3.5569 0.0 0
M  V30 19 C 5.3354 -0.9603 0.0 0
M  V30 20 C -0.2964 1.9563 0.0 0
M  V30 21 C -1.6006 4.1854 0.0 0
M  V30 22 C 0.9959 2.7151 0.0 0
M  V30 23 C -0.3201 4.956 0.0 0
M  V30 24 C 0.9722 4.2209 0.0 0
M  V30 END ATOM
M  V30 BEGIN BOND
M  V30 1 1 1 2
M  V30 2 1 1 3
M  V30 3 2 2 4
M  V30 4 1 2 5
M  V30 5 2 3 6
M  V30 6 1 3 7
M  V30 7 2 5 8
M  V30 8 1 5 9
M  V30 9 1 6 10
M  V30 10 1 6 11
M  V30 11 2 7 12
M  V30 12 1 8 13
M  V30 13 2 9 14
M  V30 14 1 10 15
M  V30 15 2 10 16
M  V30 16 1 11 17
M  V30 17 1 13 18
M  V30 18 2 13 19
M  V30 19 1 17 20
M  V30 20 1 17 21
M  V30 21 1 20 22
M  V30 22 1 21 23
M  V30 23 1 22 24
M  V30 24 1 4 7
M  V30 25 1 12 16
M  V30 26 1 14 19
M  V30 27 1 23 24
M  V30 END BOND
M  V30 END CTAB
M  END
>  <Molecule Name>
27

>  <Molecular Formula>
C19H21N3OS

>  <cLogP>
3.2247

$$$$
28
Actelion Java MolfileCreator 2.0

  0  0  0  0  0  0              0 V3000
M  V30 BEGIN CTAB
M  V30 COUNTS 24 27 0 0 0
M  V30 BEGIN ATOM
M  V30 1 S 0.0 0.0 0.0 0
M  V30 2 C 0.8772 -1.2091 0.0 0
M  V30 3 C -1.4462 -0.4504 0.0 0
M  V30 4 N -0.0237 -2.4183 0.0 0
M  V30 5 C 2.3591 -1.055 0.0 0
M  V30 6 C -2.7621 0.32 0.0 0
M  V30 7 C -1.4581 -1.9323 0.0 0
M  V30 8 C 3.1296 -2.3235 0.0 0
M  V30 9 C 3.0822 0.2726 0.0 0
M  V30 10 C -4.078 -0.4149 0.0 0
M  V30 11 C -2.8214 1.79 0.0 0
M  V30 12 C -2.774 -2.6673 0.0 0
M  V30 13 C 4.6233 -2.2879 0.0 0
M  V30 14 C 4.5759 0.3082 0.0 0
M  V30 15 O -5.3939 0.3437 0.0 0
M  V30 16 C -4.0899 -1.9086 0.0 0
M  V30 17 N -1.5885 2.6791 0.0 0
M  V30 18 O 5.3939 -3.5564 0.0 0
M  V30 19 C 5.3346 -0.9602 0.0 0
M  V30 20 C -0.2963 1.956 0.0 0
M  V30 21 C -1.6122 4.1847 0.0 0
M  V30 22 C 0.9958 2.7147 0.0 0
M  V30 23 C -0.3319 4.9553 0.0 0
M  V30 24 C 0.972 4.2203 0.0 0
M  V30 END ATOM
M  V30 BEGIN BOND
M  V30 1 1 1 2
M  V30 2 1 1 3
M  V30 3 2 2 4
M  V30 4 1 2 5
M  V30 5 2 3 6
M  V30 6 1 3 7
M  V30 7 2 5 8
M  V30 8 1 5 9
M  V30 9 1 6 10
M  V30 10 1 6 11
M  V30 11 2 7 12
M  V30 12 1 8 13
M  V30 13 2 9 14
M  V30 14 1 10 15
M  V30 15 2 10 16
M  V30 16 1 11 17
M  V30 17 1 13 18
M  V30 18 2 13 19
M  V30 19 1 17 20
M  V30 20 1 17 21
M  V30 21 1 20 22
M  V30 22 1 21 23
M  V30 23 1 22 24
M  V30 24 1 4 7
M  V30 25 1 12 16
M  V30 26 1 14 19
M  V30 27 1 23 24
M  V30 END BOND
M  V30 END CTAB
M  END
>  <Molecule Name>
28

>  <Molecular Formula>
C19H20N2O2S

>  <cLogP>
3.5563

$$$$
29
Actelion Java MolfileCreator 2.0

  0  0  0  0  0  0              0 V3000
M  V30 BEGIN CTAB
M  V30 COUNTS 25 28 0 0 0
M  V30 BEGIN ATOM
M  V30 1 S 0.0 0.0 0.0 0
M  V30 2 C 0.8779 -1.1982 0.0 0
M  V30 3 C -1.4355 -0.4508 0.0 0
M  V30 4 N -0.0118 -2.4083 0.0 0
M  V30 5 C 2.3608 -1.044 0.0 0
M  V30 6 C -2.7523 0.3203 0.0 0
M  V30 7 C -1.4473 -1.9337 0.0 0
M  V30 8 C 3.0845 0.2847 0.0 0
M  V30 9 C 3.132 -2.3134 0.0 0
M  V30 10 C -4.0692 -0.4152 0.0 0
M  V30 11 C -2.8116 1.7914 0.0 0
M  V30 12 C -2.7642 -2.6693 0.0 0
M  V30 13 C 4.5793 0.3203 0.0 0
M  V30 14 C 4.6268 -2.2778 0.0 0
M  V30 15 O -5.3861 0.344 0.0 0
M  V30 16 C -4.0811 -1.8981 0.0 0
M  V30 17 N -1.5778 2.6811 0.0 0
M  V30 18 C 5.3386 -0.9609 0.0 0
M  V30 19 C -0.2847 1.9575 0.0 0
M  V30 20 C -1.6015 4.1878 0.0 0
M  V30 21 O 6.8334 -0.9135 0.0 0
M  V30 22 C 0.9965 2.7167 0.0 0
M  V30 23 C -0.3203 4.959 0.0 0
M  V30 24 C 7.5453 0.427 0.0 0
M  V30 25 C 0.9728 4.2234 0.0 0
M  V30 END ATOM
M  V30 BEGIN BOND
M  V30 1 1 1 2
M  V30 2 1 1 3
M  V30 3 2 2 4
M  V30 4 1 2 5
M  V30 5 2 3 6
M  V30 6 1 3 7
M  V30 7 2 5 8
M  V30 8 1 5 9
M  V30 9 1 6 10
M  V30 10 1 6 11
M  V30 11 2 7 12
M  V30 12 1 8 13
M  V30 13 2 9 14
M  V30 14 1 10 15
M  V30 15 2 10 16
M  V30 16 1 11 17
M  V30 17 2 13 18
M  V30 18 1 17 19
M  V30 19 1 17 20
M  V30 20 1 18 21
M  V30 21 1 19 22
M  V30 22 1 20 23
M  V30 23 1 21 24
M  V30 24 1 22 25
M  V30 25 1 4 7
M  V30 26 1 12 16
M  V30 27 1 14 18
M  V30 28 1 23 25
M  V30 END BOND
M  V30 END CTAB
M  END
>  <Molecule Name>
29

>  <Molecular Formula>
C20H22N2O2S

>  <cLogP>
3.832

$$$$
30
Actelion Java MolfileCreator 2.0

  0  0  0  0  0  0              0 V3000
M  V30 BEGIN CTAB
M  V30 COUNTS 27 30 0 0 0
M  V30 BEGIN ATOM
M  V30 1 S 0.0 0.0 0.0 0
M  V30 2 C 0.8784 -1.199 0.0 0
M  V30 3 C -1.4364 -0.4511 0.0 0
M  V30 4 N -0.0118 -2.4099 0.0 0
M  V30 5 C 2.3624 -1.0446 0.0 0
M  V30 6 C -2.7541 0.3205 0.0 0
M  V30 7 C -1.4483 -1.935 0.0 0
M  V30 8 C 3.0865 0.2849 0.0 0
M  V30 9 C 3.134 -2.3149 0.0 0
M  V30 10 C -4.0719 -0.4155 0.0 0
M  V30 11 C -2.8135 1.7925 0.0 0
M  V30 12 C -2.766 -2.671 0.0 0
M  V30 13 C 4.5823 0.3205 0.0 0
M  V30 14 C 4.6298 -2.2793 0.0 0
M  V30 15 O -5.3896 0.3442 0.0 0
M  V30 16 C -4.0837 -1.8994 0.0 0
M  V30 17 N -1.5789 2.6829 0.0 0
M  V30 18 C 5.3421 -0.9615 0.0 0
M  V30 19 C -0.2849 1.9587 0.0 0
M  V30 20 C -1.6026 4.1906 0.0 0
M  V30 21 C 6.8379 -0.9141 0.0 0
M  V30 22 C 0.9972 2.7185 0.0 0
M  V30 23 C -0.3205 4.9622 0.0 0
M  V30 24 O 7.5502 0.4155 0.0 0
M  V30 25 O 7.6096 -2.1843 0.0 0
M  V30 26 C 0.9734 4.2262 0.0 0
M  V30 27 C 9.1054 -2.1368 0.0 0
M  V30 END ATOM
M  V30 BEGIN BOND
M  V30 1 1 1 2
M  V30 2 1 1 3
M  V30 3 2 2 4
M  V30 4 1 2 5
M  V30 5 2 3 6
M  V30 6 1 3 7
M  V30 7 2 5 8
M  V30 8 1 5 9
M  V30 9 1 6 10
M  V30 10 1 6 11
M  V30 11 2 7 12
M  V30 12 1 8 13
M  V30 13 2 9 14
M  V30 14 1 10 15
M  V30 15 2 10 16
M  V30 16 1 11 17
M  V30 17 2 13 18
M  V30 18 1 17 19
M  V30 19 1 17 20
M  V30 20 1 18 21
M  V30 21 1 19 22
M  V30 22 1 20 23
M  V30 23 2 21 24
M  V30 24 1 21 25
M  V30 25 1 22 26
M  V30 26 1 25 27
M  V30 27 1 4 7
M  V30 28 1 12 16
M  V30 29 1 14 18
M  V30 30 1 23 26
M  V30 END BOND
M  V30 END CTAB
M  END
>  <Molecule Name>
30

>  <Molecular Formula>
C21H22N2O3S

>  <cLogP>
3.815

$$$$
31
Actelion Java MolfileCreator 2.0

  0  0  0  0  0  0              0 V3000
M  V30 BEGIN CTAB
M  V30 COUNTS 24 27 0 0 0
M  V30 BEGIN ATOM
M  V30 1 S 0.0 0.0 0.0 0
M  V30 2 C 0.8763 1.2316 0.0 0
M  V30 3 C -1.4448 0.4737 0.0 0
M  V30 4 N -0.0118 2.4633 0.0 0
M  V30 5 C 2.3567 1.1014 0.0 0
M  V30 6 C -2.7594 -0.2723 0.0 0
M  V30 7 C -1.4567 1.9778 0.0 0
M  V30 8 C 3.1265 2.3923 0.0 0
M  V30 9 C 3.0792 -0.2013 0.0 0
M  V30 10 C -4.074 0.4855 0.0 0
M  V30 11 C -2.8186 -1.7172 0.0 0
M  V30 12 C -2.7712 2.7357 0.0 0
M  V30 13 O 2.3923 3.7305 0.0 0
M  V30 14 C 4.6188 2.3804 0.0 0
M  V30 15 C 4.5714 -0.2131 0.0 0
M  V30 16 O -5.3886 -0.2487 0.0 0
M  V30 17 C -4.0858 2.0014 0.0 0
M  V30 18 N -1.5869 -2.5818 0.0 0
M  V30 19 C 5.3294 1.0777 0.0 0
M  V30 20 C -0.296 -1.8356 0.0 0
M  V30 21 C -1.6106 -4.0621 0.0 0
M  V30 22 C 0.9948 -2.5699 0.0 0
M  V30 23 C -0.3316 -4.8083 0.0 0
M  V30 24 C 0.9711 -4.0503 0.0 0
M  V30 END ATOM
M  V30 BEGIN BOND
M  V30 1 1 1 2
M  V30 2 1 1 3
M  V30 3 2 2 4
M  V30 4 1 2 5
M  V30 5 2 3 6
M  V30 6 1 3 7
M  V30 7 2 5 8
M  V30 8 1 5 9
M  V30 9 1 6 10
M  V30 10 1 6 11
M  V30 11 2 7 12
M  V30 12 1 8 13
M  V30 13 1 8 14
M  V30 14 2 9 15
M  V30 15 1 10 16
M  V30 16 2 10 17
M  V30 17 1 11 18
M  V30 18 2 14 19
M  V30 19 1 18 20
M  V30 20 1 18 21
M  V30 21 1 20 22
M  V30 22 1 21 23
M  V30 23 1 22 24
M  V30 24 1 4 7
M  V30 25 1 12 17
M  V30 26 1 15 19
M  V30 27 1 23 24
M  V30 END BOND
M  V30 END CTAB
M  END
>  <Molecule Name>
31

>  <Molecular Formula>
C19H20N2O2S

>  <cLogP>
3.5563

$$$$
32
Actelion Java MolfileCreator 2.0

  0  0  0  0  0  0              0 V3000
M  V30 BEGIN CTAB
M  V30 COUNTS 27 30 0 0 0
M  V30 BEGIN ATOM
M  V30 1 S 0.9889 -2.1691 0.0 0
M  V30 2 C 1.3956 -3.0826 0.0 0
M  V30 3 C 1.732 -1.4999 0.0 0
M  V30 4 N 2.3901 -2.9781 0.0 0
M  V30 5 C 0.8956 -3.9487 0.0 0
M  V30 6 C 1.732 -0.5 0.0 0
M  V30 7 C 2.598 -1.9999 0.0 0
M  V30 8 C -0.1043 -3.9487 0.0 0
M  V30 9 C 1.3956 -4.8147 0.0 0
M  V30 10 C 2.598 0.0 0.0 0
M  V30 11 C 0.866 0.0 0.0 0
M  V30 12 C 3.4641 -1.4999 0.0 0
M  V30 13 C -0.6043 -4.8147 0.0 0
M  V30 14 C 0.8956 -5.6807 0.0 0
M  V30 15 O 2.598 1.0 0.0 0
M  V30 16 C 3.4641 -0.5 0.0 0
M  V30 17 N 0.0 -0.5 0.0 0
M  V30 18 C -0.1043 -5.6807 0.0 0
M  V30 19 C -0.866 0.0 0.0 0
M  V30 20 C 0.0 -1.4999 0.0 0
M  V30 21 C -0.6043 -6.5467 0.0 0
M  V30 22 C -1.732 -0.4999 0.0 0
M  V30 23 C -0.866 -1.9999 0.0 0
M  V30 24 F 0.2616 -7.0467 0.0 0
M  V30 25 F -1.1043 -7.4128 0.0 0
M  V30 26 F -1.4703 -6.0467 0.0 0
M  V30 27 O -1.732 -1.4999 0.0 0
M  V30 END ATOM
M  V30 BEGIN BOND
M  V30 1 1 1 2
M  V30 2 1 1 3
M  V30 3 2 2 4
M  V30 4 1 2 5
M  V30 5 2 3 6
M  V30 6 1 3 7
M  V30 7 2 5 8
M  V30 8 1 5 9
M  V30 9 1 6 10
M  V30 10 1 6 11
M  V30 11 2 7 12
M  V30 12 1 8 13
M  V30 13 2 9 14
M  V30 14 1 10 15
M  V30 15 2 10 16
M  V30 16 1 11 17
M  V30 17 2 13 18
M  V30 18 1 17 19
M  V30 19 1 17 20
M  V30 20 1 18 21
M  V30 21 1 19 22
M  V30 22 1 20 23
M  V30 23 1 21 24
M  V30 24 1 21 25
M  V30 25 1 21 26
M  V30 26 1 22 27
M  V30 27 1 4 7
M  V30 28 1 12 16
M  V30 29 1 14 18
M  V30 30 1 23 27
M  V30 END BOND
M  V30 END CTAB
M  END
>  <Molecule Name>
32

>  <Molecular Formula>
C19H17N2O2F3S

>  <cLogP>
3.5863

$$$$
33
Actelion Java MolfileCreator 2.0

  0  0  0  0  0  0              0 V3000
M  V30 BEGIN CTAB
M  V30 COUNTS 26 29 0 0 0
M  V30 BEGIN ATOM
M  V30 1 S 0.9889 -2.1691 0.0 0
M  V30 2 C 1.3956 -3.0826 0.0 0
M  V30 3 C 1.732 -1.4999 0.0 0
M  V30 4 N 2.3901 -2.9781 0.0 0
M  V30 5 C 0.8956 -3.9487 0.0 0
M  V30 6 C 1.732 -0.5 0.0 0
M  V30 7 C 2.598 -1.9999 0.0 0
M  V30 8 C -0.1043 -3.9487 0.0 0
M  V30 9 C 1.3956 -4.8147 0.0 0
M  V30 10 C 2.598 0.0 0.0 0
M  V30 11 C 0.866 0.0 0.0 0
M  V30 12 C 3.4641 -1.4999 0.0 0
M  V30 13 C -0.6043 -4.8147 0.0 0
M  V30 14 C 0.8956 -5.6807 0.0 0
M  V30 15 O 2.598 1.0 0.0 0
M  V30 16 C 3.4641 -0.5 0.0 0
M  V30 17 N 0.0 -0.5 0.0 0
M  V30 18 C -0.1043 -5.6807 0.0 0
M  V30 19 C -0.9135 -0.0932 0.0 0
M  V30 20 C -0.1045 -1.4945 0.0 0
M  V30 21 C -0.6043 -6.5467 0.0 0
M  V30 22 C -1.5826 -0.8364 0.0 0
M  V30 23 C -1.0826 -1.7024 0.0 0
M  V30 24 F 0.2616 -7.0467 0.0 0
M  V30 25 F -1.1043 -7.4128 0.0 0
M  V30 26 F -1.4703 -6.0467 0.0 0
M  V30 END ATOM
M  V30 BEGIN BOND
M  V30 1 1 1 2
M  V30 2 1 1 3
M  V30 3 2 2 4
M  V30 4 1 2 5
M  V30 5 2 3 6
M  V30 6 1 3 7
M  V30 7 2 5 8
M  V30 8 1 5 9
M  V30 9 1 6 10
M  V30 10 1 6 11
M  V30 11 2 7 12
M  V30 12 1 8 13
M  V30 13 2 9 14
M  V30 14 1 10 15
M  V30 15 2 10 16
M  V30 16 1 11 17
M  V30 17 2 13 18
M  V30 18 1 17 19
M  V30 19 1 17 20
M  V30 20 1 18 21
M  V30 21 1 19 22
M  V30 22 1 20 23
M  V30 23 1 21 24
M  V30 24 1 21 25
M  V30 25 1 21 26
M  V30 26 1 4 7
M  V30 27 1 12 16
M  V30 28 1 14 18
M  V30 29 1 22 23
M  V30 END BOND
M  V30 END CTAB
M  END
>  <Molecule Name>
33

>  <Molecular Formula>
C19H17N2OF3S

>  <cLogP>
4.4083

$$$$
34
Actelion Java MolfileCreator 2.0

  0  0  0  0  0  0              0 V3000
M  V30 BEGIN CTAB
M  V30 COUNTS 25 28 0 0 0
M  V30 BEGIN ATOM
M  V30 1 S 0.9889 -2.1691 0.0 0
M  V30 2 C 1.3956 -3.0826 0.0 0
M  V30 3 C 1.732 -1.4999 0.0 0
M  V30 4 N 2.3901 -2.9781 0.0 0
M  V30 5 C 0.8956 -3.9487 0.0 0
M  V30 6 C 1.732 -0.5 0.0 0
M  V30 7 C 2.598 -1.9999 0.0 0
M  V30 8 C -0.1043 -3.9487 0.0 0
M  V30 9 C 1.3956 -4.8147 0.0 0
M  V30 10 C 2.598 0.0 0.0 0
M  V30 11 C 0.866 0.0 0.0 0
M  V30 12 C 3.4641 -1.4999 0.0 0
M  V30 13 C -0.6043 -4.8147 0.0 0
M  V30 14 C 0.8956 -5.6807 0.0 0
M  V30 15 O 2.598 1.0 0.0 0
M  V30 16 C 3.4641 -0.5 0.0 0
M  V30 17 N 0.0 -0.5 0.0 0
M  V30 18 C -0.1043 -5.6807 0.0 0
M  V30 19 C -0.9659 -0.2411 0.0 0
M  V30 20 C -0.2588 -1.4659 0.0 0
M  V30 21 C -0.6043 -6.5467 0.0 0
M  V30 22 C -1.2247 -1.2071 0.0 0
M  V30 23 F 0.2616 -7.0467 0.0 0
M  V30 24 F -1.1043 -7.4128 0.0 0
M  V30 25 F -1.4703 -6.0467 0.0 0
M  V30 END ATOM
M  V30 BEGIN BOND
M  V30 1 1 1 2
M  V30 2 1 1 3
M  V30 3 2 2 4
M  V30 4 1 2 5
M  V30 5 2 3 6
M  V30 6 1 3 7
M  V30 7 2 5 8
M  V30 8 1 5 9
M  V30 9 1 6 10
M  V30 10 1 6 11
M  V30 11 2 7 12
M  V30 12 1 8 13
M  V30 13 2 9 14
M  V30 14 1 10 15
M  V30 15 2 10 16
M  V30 16 1 11 17
M  V30 17 2 13 18
M  V30 18 1 17 19
M  V30 19 1 17 20
M  V30 20 1 18 21
M  V30 21 1 19 22
M  V30 22 1 21 23
M  V30 23 1 21 24
M  V30 24 1 21 25
M  V30 25 1 4 7
M  V30 26 1 12 16
M  V30 27 1 14 18
M  V30 28 1 20 22
M  V30 END BOND
M  V30 END CTAB
M  END
>  <Molecule Name>
34

>  <Molecular Formula>
C18H15N2OF3S

>  <cLogP>
4.0663

$$$$
