cou_series.sdf
  ChemDraw06212321072D

  0  0  0     0  0              0 V3000
M  V30 BEGIN CTAB
M  V30 COUNTS 26 29 0 0 0
M  V30 BEGIN ATOM
M  V30 1 C -1.428568 -0.206250 0.000000 0
M  V30 2 C -1.428568 -1.031250 0.000000 0
M  V30 3 C -0.714141 -1.443750 0.000000 0
M  V30 4 C 0.000286 -1.031250 0.000000 0
M  V30 5 C 0.000286 -0.206250 0.000000 0
M  V30 6 C -0.714141 0.206250 0.000000 0
M  V30 7 C 0.714714 -1.443750 0.000000 0
M  V30 8 C 1.429141 -1.031250 0.000000 0
M  V30 9 C 1.429141 -0.206250 0.000000 0
M  V30 10 O 0.714714 0.206250 0.000000 0
M  V30 11 O 2.143569 0.206250 0.000000 0
M  V30 12 C 2.143569 -1.443750 0.000000 0
M  V30 13 O -2.142995 0.206250 0.000000 0
M  V30 14 C -0.714141 1.031250 0.000000 0
M  V30 15 N -1.428568 1.443750 0.000000 0
M  V30 16 C -1.428568 2.268750 0.000000 0
M  V30 17 C -2.142995 2.681251 0.000000 0
M  V30 18 C -2.857423 2.268750 0.000000 0
M  V30 19 C -2.857423 1.443750 0.000000 0
M  V30 20 C -2.142995 1.031250 0.000000 0
M  V30 21 C 2.143569 -2.268751 0.000000 0
M  V30 22 C 2.857996 -2.681251 0.000000 0
M  V30 23 C 3.572424 -2.268751 0.000000 0
M  V30 24 C 3.572424 -1.443750 0.000000 0
M  V30 25 C 2.857996 -1.031250 0.000000 0
M  V30 26 C -3.572424 2.681251 0.000000 0
M  V30 END ATOM
M  V30 BEGIN BOND
M  V30 1 2 1 2
M  V30 2 1 2 3
M  V30 3 2 3 4
M  V30 4 1 4 5
M  V30 5 2 5 6
M  V30 6 1 6 1
M  V30 7 1 4 7
M  V30 8 2 7 8
M  V30 9 1 8 9
M  V30 10 1 9 10
M  V30 11 1 10 5
M  V30 12 2 9 11
M  V30 13 1 8 12
M  V30 14 1 1 13
M  V30 15 1 6 14
M  V30 16 1 14 15
M  V30 17 1 15 16
M  V30 18 1 16 17
M  V30 19 1 17 18
M  V30 20 1 18 19
M  V30 21 1 19 20
M  V30 22 1 20 15
M  V30 23 2 12 21
M  V30 24 1 21 22
M  V30 25 2 22 23
M  V30 26 1 23 24
M  V30 27 2 24 25
M  V30 28 1 25 12
M  V30 29 1 18 26
M  V30 END BOND
M  V30 END CTAB
M  END
$$$$
cou_series.sdf
  ChemDraw06212321072D

  0  0  0     0  0              0 V3000
M  V30 BEGIN CTAB
M  V30 COUNTS 27 30 0 0 0
M  V30 BEGIN ATOM
M  V30 1 C -1.786355 -0.206250 0.000000 0
M  V30 2 C -1.786355 -1.031250 0.000000 0
M  V30 3 C -1.071928 -1.443750 0.000000 0
M  V30 4 C -0.357500 -1.031250 0.000000 0
M  V30 5 C -0.357500 -0.206250 0.000000 0
M  V30 6 C -1.071928 0.206250 0.000000 0
M  V30 7 C 0.356927 -1.443750 0.000000 0
M  V30 8 C 1.071354 -1.031250 0.000000 0
M  V30 9 C 1.071354 -0.206250 0.000000 0
M  V30 10 O 0.356927 0.206250 0.000000 0
M  V30 11 O 1.785782 0.206250 0.000000 0
M  V30 12 C 1.785782 -1.443750 0.000000 0
M  V30 13 O -2.500783 0.206250 0.000000 0
M  V30 14 C -1.071928 1.031250 0.000000 0
M  V30 15 N -1.786355 1.443750 0.000000 0
M  V30 16 C -1.786355 2.268751 0.000000 0
M  V30 17 C -2.500783 2.681251 0.000000 0
M  V30 18 C -3.215210 2.268751 0.000000 0
M  V30 19 C -3.215210 1.443750 0.000000 0
M  V30 20 C -2.500783 1.031250 0.000000 0
M  V30 21 C 1.785782 -2.268750 0.000000 0
M  V30 22 C 2.500782 -2.681251 0.000000 0
M  V30 23 C 3.215209 -2.268750 0.000000 0
M  V30 24 C 3.215209 -1.443750 0.000000 0
M  V30 25 C 2.500782 -1.031250 0.000000 0
M  V30 26 C -3.929637 2.681251 0.000000 0
M  V30 27 O 3.929637 -2.681251 0.000000 0
M  V30 END ATOM
M  V30 BEGIN BOND
M  V30 1 2 1 2
M  V30 2 1 2 3
M  V30 3 2 3 4
M  V30 4 1 4 5
M  V30 5 2 5 6
M  V30 6 1 6 1
M  V30 7 1 4 7
M  V30 8 2 7 8
M  V30 9 1 8 9
M  V30 10 1 9 10
M  V30 11 1 10 5
M  V30 12 2 9 11
M  V30 13 1 8 12
M  V30 14 1 1 13
M  V30 15 1 6 14
M  V30 16 1 14 15
M  V30 17 1 15 16
M  V30 18 1 16 17
M  V30 19 1 17 18
M  V30 20 1 18 19
M  V30 21 1 19 20
M  V30 22 1 20 15
M  V30 23 2 12 21
M  V30 24 1 21 22
M  V30 25 2 22 23
M  V30 26 1 23 24
M  V30 27 2 24 25
M  V30 28 1 25 12
M  V30 29 1 18 26
M  V30 30 1 23 27
M  V30 END BOND
M  V30 END CTAB
M  END
$$$$
cou_series.sdf
  ChemDraw06212321072D

  0  0  0     0  0              0 V3000
M  V30 BEGIN CTAB
M  V30 COUNTS 30 33 1 0 0
M  V30 BEGIN ATOM
M  V30 1 C -2.142423 0.149818 0.000000 0
M  V30 2 C -2.142423 -0.675182 0.000000 0
M  V30 3 C -1.427996 -1.087683 0.000000 0
M  V30 4 C -0.713569 -0.675182 0.000000 0
M  V30 5 C -0.713569 0.149818 0.000000 0
M  V30 6 C -1.427996 0.562318 0.000000 0
M  V30 7 C 0.000859 -1.087683 0.000000 0
M  V30 8 C 0.715286 -0.675182 0.000000 0
M  V30 9 C 0.715286 0.149818 0.000000 0
M  V30 10 O 0.000859 0.562318 0.000000 0
M  V30 11 O 1.430286 0.562318 0.000000 0
M  V30 12 C 1.430286 -1.087683 0.000000 0
M  V30 13 O -2.856850 0.562318 0.000000 0
M  V30 14 C -1.427996 1.387319 0.000000 0
M  V30 15 N -2.142423 1.799819 0.000000 0
M  V30 16 C -2.142423 2.624819 0.000000 0
M  V30 17 C -2.856850 3.037319 0.000000 0
M  V30 18 C -3.571278 2.624819 0.000000 0
M  V30 19 C -3.571278 1.799819 0.000000 0
M  V30 20 C -2.856850 1.387319 0.000000 0
M  V30 21 C 1.430286 -1.912683 0.000000 0
M  V30 22 C 2.144714 -2.325183 0.000000 0
M  V30 23 C 2.859141 -1.912683 0.000000 0
M  V30 24 C 2.859141 -1.087683 0.000000 0
M  V30 25 C 2.144714 -0.675182 0.000000 0
M  V30 26 C -4.285705 3.037319 0.000000 0
M  V30 27 C 3.573569 -2.325183 0.000000 0
M  V30 28 F 3.162215 -3.037319 0.000000 0
M  V30 29 F 4.285705 -2.735964 0.000000 0
M  V30 30 F 3.984350 -1.613047 0.000000 0
M  V30 END ATOM
M  V30 BEGIN BOND
M  V30 1 1 27 28
M  V30 2 1 27 29
M  V30 3 1 27 30
M  V30 4 1 23 27
M  V30 5 2 1 2
M  V30 6 1 2 3
M  V30 7 2 3 4
M  V30 8 1 4 5
M  V30 9 2 5 6
M  V30 10 1 6 1
M  V30 11 1 4 7
M  V30 12 2 7 8
M  V30 13 1 8 9
M  V30 14 1 9 10
M  V30 15 1 10 5
M  V30 16 2 9 11
M  V30 17 1 8 12
M  V30 18 1 1 13
M  V30 19 1 6 14
M  V30 20 1 14 15
M  V30 21 1 15 16
M  V30 22 1 16 17
M  V30 23 1 17 18
M  V30 24 1 18 19
M  V30 25 1 19 20
M  V30 26 1 20 15
M  V30 27 2 12 21
M  V30 28 1 21 22
M  V30 29 2 22 23
M  V30 30 1 23 24
M  V30 31 2 24 25
M  V30 32 1 25 12
M  V30 33 1 18 26
M  V30 END BOND
M  V30 BEGIN SGROUP
M  V30 1 SUP 1 ATOMS=(4 27 28 29 30) XBONDS=(1 4) LABEL=CF3 CSTATE=(4 4 -
M  V30 -0.714427 0.412500 0)
M  V30 END SGROUP
M  V30 END CTAB
M  END
$$$$
cou_series.sdf
  ChemDraw06212321072D

  0  0  0     0  0              0 V3000
M  V30 BEGIN CTAB
M  V30 COUNTS 25 28 0 0 0
M  V30 BEGIN ATOM
M  V30 1 C -1.786069 -0.206250 0.000000 0
M  V30 2 C -1.786069 -1.031250 0.000000 0
M  V30 3 C -1.071641 -1.443750 0.000000 0
M  V30 4 C -0.357214 -1.031250 0.000000 0
M  V30 5 C -0.357214 -0.206250 0.000000 0
M  V30 6 C -1.071641 0.206250 0.000000 0
M  V30 7 C 0.357214 -1.443750 0.000000 0
M  V30 8 C 1.071641 -1.031250 0.000000 0
M  V30 9 C 1.071641 -0.206250 0.000000 0
M  V30 10 O 0.357214 0.206250 0.000000 0
M  V30 11 O 1.786069 0.206250 0.000000 0
M  V30 12 C 1.786069 -1.443750 0.000000 0
M  V30 13 O -2.500496 0.206250 0.000000 0
M  V30 14 C -1.071641 1.031250 0.000000 0
M  V30 15 N -1.786069 1.443750 0.000000 0
M  V30 16 C -1.786069 2.268750 0.000000 0
M  V30 17 C -2.500496 2.681251 0.000000 0
M  V30 18 C -3.214924 2.268750 0.000000 0
M  V30 19 C -3.214924 1.443750 0.000000 0
M  V30 20 C -2.500496 1.031250 0.000000 0
M  V30 21 C 1.786069 -2.268751 0.000000 0
M  V30 22 C 2.500496 -2.681251 0.000000 0
M  V30 23 C 3.214924 -2.268751 0.000000 0
M  V30 24 C 3.214924 -1.443750 0.000000 0
M  V30 25 C 2.500496 -1.031250 0.000000 0
M  V30 END ATOM
M  V30 BEGIN BOND
M  V30 1 2 1 2
M  V30 2 1 2 3
M  V30 3 2 3 4
M  V30 4 1 4 5
M  V30 5 2 5 6
M  V30 6 1 6 1
M  V30 7 1 4 7
M  V30 8 2 7 8
M  V30 9 1 8 9
M  V30 10 1 9 10
M  V30 11 1 10 5
M  V30 12 2 9 11
M  V30 13 1 8 12
M  V30 14 1 1 13
M  V30 15 1 6 14
M  V30 16 1 14 15
M  V30 17 1 15 16
M  V30 18 1 16 17
M  V30 19 1 17 18
M  V30 20 1 18 19
M  V30 21 1 19 20
M  V30 22 1 20 15
M  V30 23 2 12 21
M  V30 24 1 21 22
M  V30 25 2 22 23
M  V30 26 1 23 24
M  V30 27 2 24 25
M  V30 28 1 25 12
M  V30 END BOND
M  V30 END CTAB
M  END
$$$$
cou_series.sdf
  ChemDraw06212321072D

  0  0  0     0  0              0 V3000
M  V30 BEGIN CTAB
M  V30 COUNTS 26 29 0 0 0
M  V30 BEGIN ATOM
M  V30 1 C -2.143569 -0.206250 0.000000 0
M  V30 2 C -2.143569 -1.031250 0.000000 0
M  V30 3 C -1.429141 -1.443750 0.000000 0
M  V30 4 C -0.714714 -1.031250 0.000000 0
M  V30 5 C -0.714714 -0.206250 0.000000 0
M  V30 6 C -1.429141 0.206250 0.000000 0
M  V30 7 C -0.000286 -1.443750 0.000000 0
M  V30 8 C 0.714141 -1.031250 0.000000 0
M  V30 9 C 0.714141 -0.206250 0.000000 0
M  V30 10 O -0.000286 0.206250 0.000000 0
M  V30 11 O 1.428569 0.206250 0.000000 0
M  V30 12 C 1.428569 -1.443750 0.000000 0
M  V30 13 O -2.857996 0.206250 0.000000 0
M  V30 14 C -1.429141 1.031250 0.000000 0
M  V30 15 N -2.143569 1.443750 0.000000 0
M  V30 16 C -2.143569 2.268751 0.000000 0
M  V30 17 C -2.857996 2.681251 0.000000 0
M  V30 18 C -3.572424 2.268751 0.000000 0
M  V30 19 C -3.572424 1.443750 0.000000 0
M  V30 20 C -2.857996 1.031250 0.000000 0
M  V30 21 C 1.428569 -2.268750 0.000000 0
M  V30 22 C 2.143569 -2.681251 0.000000 0
M  V30 23 C 2.857996 -2.268750 0.000000 0
M  V30 24 C 2.857996 -1.443750 0.000000 0
M  V30 25 C 2.143569 -1.031250 0.000000 0
M  V30 26 O 3.572424 -2.681251 0.000000 0
M  V30 END ATOM
M  V30 BEGIN BOND
M  V30 1 2 1 2
M  V30 2 1 2 3
M  V30 3 2 3 4
M  V30 4 1 4 5
M  V30 5 2 5 6
M  V30 6 1 6 1
M  V30 7 1 4 7
M  V30 8 2 7 8
M  V30 9 1 8 9
M  V30 10 1 9 10
M  V30 11 1 10 5
M  V30 12 2 9 11
M  V30 13 1 8 12
M  V30 14 1 1 13
M  V30 15 1 6 14
M  V30 16 1 14 15
M  V30 17 1 15 16
M  V30 18 1 16 17
M  V30 19 1 17 18
M  V30 20 1 18 19
M  V30 21 1 19 20
M  V30 22 1 20 15
M  V30 23 2 12 21
M  V30 24 1 21 22
M  V30 25 2 22 23
M  V30 26 1 23 24
M  V30 27 2 24 25
M  V30 28 1 25 12
M  V30 29 1 23 26
M  V30 END BOND
M  V30 END CTAB
M  END
$$$$
cou_series.sdf
  ChemDraw06212321072D

  0  0  0     0  0              0 V3000
M  V30 BEGIN CTAB
M  V30 COUNTS 29 32 1 0 0
M  V30 BEGIN ATOM
M  V30 1 C -2.499637 0.149818 0.000000 0
M  V30 2 C -2.499637 -0.675182 0.000000 0
M  V30 3 C -1.785209 -1.087683 0.000000 0
M  V30 4 C -1.070782 -0.675182 0.000000 0
M  V30 5 C -1.070782 0.149818 0.000000 0
M  V30 6 C -1.785209 0.562318 0.000000 0
M  V30 7 C -0.356354 -1.087683 0.000000 0
M  V30 8 C 0.358073 -0.675182 0.000000 0
M  V30 9 C 0.358073 0.149818 0.000000 0
M  V30 10 O -0.356354 0.562318 0.000000 0
M  V30 11 O 1.073073 0.562318 0.000000 0
M  V30 12 C 1.073073 -1.087683 0.000000 0
M  V30 13 O -3.214064 0.562318 0.000000 0
M  V30 14 C -1.785209 1.387319 0.000000 0
M  V30 15 N -2.499637 1.799819 0.000000 0
M  V30 16 C -2.499637 2.624819 0.000000 0
M  V30 17 C -3.214064 3.037319 0.000000 0
M  V30 18 C -3.928492 2.624819 0.000000 0
M  V30 19 C -3.928492 1.799819 0.000000 0
M  V30 20 C -3.214064 1.387319 0.000000 0
M  V30 21 C 1.073073 -1.912683 0.000000 0
M  V30 22 C 1.787501 -2.325183 0.000000 0
M  V30 23 C 2.501928 -1.912683 0.000000 0
M  V30 24 C 2.501928 -1.087683 0.000000 0
M  V30 25 C 1.787501 -0.675182 0.000000 0
M  V30 26 C 3.216355 -2.325183 0.000000 0
M  V30 27 F 2.805002 -3.037319 0.000000 0
M  V30 28 F 3.928492 -2.735964 0.000000 0
M  V30 29 F 3.627137 -1.613047 0.000000 0
M  V30 END ATOM
M  V30 BEGIN BOND
M  V30 1 1 26 27
M  V30 2 1 26 28
M  V30 3 1 26 29
M  V30 4 1 23 26
M  V30 5 2 1 2
M  V30 6 1 2 3
M  V30 7 2 3 4
M  V30 8 1 4 5
M  V30 9 2 5 6
M  V30 10 1 6 1
M  V30 11 1 4 7
M  V30 12 2 7 8
M  V30 13 1 8 9
M  V30 14 1 9 10
M  V30 15 1 10 5
M  V30 16 2 9 11
M  V30 17 1 8 12
M  V30 18 1 1 13
M  V30 19 1 6 14
M  V30 20 1 14 15
M  V30 21 1 15 16
M  V30 22 1 16 17
M  V30 23 1 17 18
M  V30 24 1 18 19
M  V30 25 1 19 20
M  V30 26 1 20 15
M  V30 27 2 12 21
M  V30 28 1 21 22
M  V30 29 2 22 23
M  V30 30 1 23 24
M  V30 31 2 24 25
M  V30 32 1 25 12
M  V30 END BOND
M  V30 BEGIN SGROUP
M  V30 1 SUP 1 ATOMS=(4 26 27 28 29) XBONDS=(1 4) LABEL=CF3 CSTATE=(4 4 -
M  V30 -0.714427 0.412500 0)
M  V30 END SGROUP
M  V30 END CTAB
M  END
$$$$
cou_series.sdf
  ChemDraw06212321072D

  0  0  0     0  0              0 V3000
M  V30 BEGIN CTAB
M  V30 COUNTS 25 28 0 0 0
M  V30 BEGIN ATOM
M  V30 1 C -1.786069 -0.206250 0.000000 0
M  V30 2 C -1.786069 -1.031250 0.000000 0
M  V30 3 C -1.071641 -1.443751 0.000000 0
M  V30 4 C -0.357214 -1.031250 0.000000 0
M  V30 5 C -0.357214 -0.206250 0.000000 0
M  V30 6 C -1.071641 0.206250 0.000000 0
M  V30 7 C 0.357214 -1.443751 0.000000 0
M  V30 8 C 1.071641 -1.031250 0.000000 0
M  V30 9 C 1.071641 -0.206250 0.000000 0
M  V30 10 O 0.357214 0.206250 0.000000 0
M  V30 11 O 1.786069 0.206250 0.000000 0
M  V30 12 C 1.786069 -1.443751 0.000000 0
M  V30 13 O -2.500496 0.206250 0.000000 0
M  V30 14 C -1.071641 1.031251 0.000000 0
M  V30 15 N -1.786069 1.443751 0.000000 0
M  V30 16 C -1.786069 2.268751 0.000000 0
M  V30 17 C -2.500496 2.681251 0.000000 0
M  V30 18 O -3.214924 2.268751 0.000000 0
M  V30 19 C -3.214924 1.443751 0.000000 0
M  V30 20 C -2.500496 1.031251 0.000000 0
M  V30 21 C 1.786069 -2.268751 0.000000 0
M  V30 22 C 2.500496 -2.681251 0.000000 0
M  V30 23 C 3.214924 -2.268751 0.000000 0
M  V30 24 C 3.214924 -1.443751 0.000000 0
M  V30 25 C 2.500496 -1.031250 0.000000 0
M  V30 END ATOM
M  V30 BEGIN BOND
M  V30 1 2 1 2
M  V30 2 1 2 3
M  V30 3 2 3 4
M  V30 4 1 4 5
M  V30 5 2 5 6
M  V30 6 1 6 1
M  V30 7 1 4 7
M  V30 8 2 7 8
M  V30 9 1 8 9
M  V30 10 1 9 10
M  V30 11 1 10 5
M  V30 12 2 9 11
M  V30 13 1 8 12
M  V30 14 1 1 13
M  V30 15 1 6 14
M  V30 16 1 14 15
M  V30 17 1 15 16
M  V30 18 1 16 17
M  V30 19 1 17 18
M  V30 20 1 18 19
M  V30 21 1 19 20
M  V30 22 1 20 15
M  V30 23 2 12 21
M  V30 24 1 21 22
M  V30 25 2 22 23
M  V30 26 1 23 24
M  V30 27 2 24 25
M  V30 28 1 25 12
M  V30 END BOND
M  V30 END CTAB
M  END
$$$$
cou_series.sdf
  ChemDraw06212321072D

  0  0  0     0  0              0 V3000
M  V30 BEGIN CTAB
M  V30 COUNTS 26 29 0 0 0
M  V30 BEGIN ATOM
M  V30 1 C -2.143569 -0.206250 0.000000 0
M  V30 2 C -2.143569 -1.031250 0.000000 0
M  V30 3 C -1.429141 -1.443750 0.000000 0
M  V30 4 C -0.714714 -1.031250 0.000000 0
M  V30 5 C -0.714714 -0.206250 0.000000 0
M  V30 6 C -1.429141 0.206250 0.000000 0
M  V30 7 C -0.000286 -1.443750 0.000000 0
M  V30 8 C 0.714141 -1.031250 0.000000 0
M  V30 9 C 0.714141 -0.206250 0.000000 0
M  V30 10 O -0.000286 0.206250 0.000000 0
M  V30 11 O 1.428569 0.206250 0.000000 0
M  V30 12 C 1.428569 -1.443750 0.000000 0
M  V30 13 O -2.857996 0.206250 0.000000 0
M  V30 14 C -1.429141 1.031250 0.000000 0
M  V30 15 N -2.143569 1.443750 0.000000 0
M  V30 16 C -2.143569 2.268751 0.000000 0
M  V30 17 C -2.857996 2.681251 0.000000 0
M  V30 18 O -3.572424 2.268751 0.000000 0
M  V30 19 C -3.572424 1.443750 0.000000 0
M  V30 20 C -2.857996 1.031250 0.000000 0
M  V30 21 C 1.428569 -2.268751 0.000000 0
M  V30 22 C 2.143569 -2.681251 0.000000 0
M  V30 23 C 2.857996 -2.268751 0.000000 0
M  V30 24 C 2.857996 -1.443750 0.000000 0
M  V30 25 C 2.143569 -1.031250 0.000000 0
M  V30 26 O 3.572424 -2.681251 0.000000 0
M  V30 END ATOM
M  V30 BEGIN BOND
M  V30 1 2 1 2
M  V30 2 1 2 3
M  V30 3 2 3 4
M  V30 4 1 4 5
M  V30 5 2 5 6
M  V30 6 1 6 1
M  V30 7 1 4 7
M  V30 8 2 7 8
M  V30 9 1 8 9
M  V30 10 1 9 10
M  V30 11 1 10 5
M  V30 12 2 9 11
M  V30 13 1 8 12
M  V30 14 1 1 13
M  V30 15 1 6 14
M  V30 16 1 14 15
M  V30 17 1 15 16
M  V30 18 1 16 17
M  V30 19 1 17 18
M  V30 20 1 18 19
M  V30 21 1 19 20
M  V30 22 1 20 15
M  V30 23 2 12 21
M  V30 24 1 21 22
M  V30 25 2 22 23
M  V30 26 1 23 24
M  V30 27 2 24 25
M  V30 28 1 25 12
M  V30 29 1 23 26
M  V30 END BOND
M  V30 END CTAB
M  END
$$$$
cou_series.sdf
  ChemDraw06212321072D

  0  0  0     0  0              0 V3000
M  V30 BEGIN CTAB
M  V30 COUNTS 29 32 1 0 0
M  V30 BEGIN ATOM
M  V30 1 C -2.499636 0.149818 0.000000 0
M  V30 2 C -2.499636 -0.675183 0.000000 0
M  V30 3 C -1.785209 -1.087683 0.000000 0
M  V30 4 C -1.070781 -0.675183 0.000000 0
M  V30 5 C -1.070781 0.149818 0.000000 0
M  V30 6 C -1.785209 0.562318 0.000000 0
M  V30 7 C -0.356354 -1.087683 0.000000 0
M  V30 8 C 0.358074 -0.675183 0.000000 0
M  V30 9 C 0.358074 0.149818 0.000000 0
M  V30 10 O -0.356354 0.562318 0.000000 0
M  V30 11 O 1.073074 0.562318 0.000000 0
M  V30 12 C 1.073074 -1.087683 0.000000 0
M  V30 13 O -3.214064 0.562318 0.000000 0
M  V30 14 C -1.785209 1.387318 0.000000 0
M  V30 15 N -2.499636 1.799819 0.000000 0
M  V30 16 C -2.499636 2.624819 0.000000 0
M  V30 17 C -3.214064 3.037319 0.000000 0
M  V30 18 O -3.928491 2.624819 0.000000 0
M  V30 19 C -3.928491 1.799819 0.000000 0
M  V30 20 C -3.214064 1.387318 0.000000 0
M  V30 21 C 1.073074 -1.912683 0.000000 0
M  V30 22 C 1.787501 -2.325183 0.000000 0
M  V30 23 C 2.501928 -1.912683 0.000000 0
M  V30 24 C 2.501928 -1.087683 0.000000 0
M  V30 25 C 1.787501 -0.675183 0.000000 0
M  V30 26 C 3.216356 -2.325183 0.000000 0
M  V30 27 F 2.805001 -3.037319 0.000000 0
M  V30 28 F 3.928491 -2.735965 0.000000 0
M  V30 29 F 3.627137 -1.613047 0.000000 0
M  V30 END ATOM
M  V30 BEGIN BOND
M  V30 1 1 26 27
M  V30 2 1 26 28
M  V30 3 1 26 29
M  V30 4 1 23 26
M  V30 5 2 1 2
M  V30 6 1 2 3
M  V30 7 2 3 4
M  V30 8 1 4 5
M  V30 9 2 5 6
M  V30 10 1 6 1
M  V30 11 1 4 7
M  V30 12 2 7 8
M  V30 13 1 8 9
M  V30 14 1 9 10
M  V30 15 1 10 5
M  V30 16 2 9 11
M  V30 17 1 8 12
M  V30 18 1 1 13
M  V30 19 1 6 14
M  V30 20 1 14 15
M  V30 21 1 15 16
M  V30 22 1 16 17
M  V30 23 1 17 18
M  V30 24 1 18 19
M  V30 25 1 19 20
M  V30 26 1 20 15
M  V30 27 2 12 21
M  V30 28 1 21 22
M  V30 29 2 22 23
M  V30 30 1 23 24
M  V30 31 2 24 25
M  V30 32 1 25 12
M  V30 END BOND
M  V30 BEGIN SGROUP
M  V30 1 SUP 1 ATOMS=(4 26 27 28 29) XBONDS=(1 4) LABEL=CF3 CSTATE=(4 4 -
M  V30 -0.714427 0.412500 0)
M  V30 END SGROUP
M  V30 END CTAB
M  END
$$$$
cou_series.sdf
  ChemDraw06212321072D

  0  0  0     0  0              0 V3000
M  V30 BEGIN CTAB
M  V30 COUNTS 23 26 0 0 0
M  V30 BEGIN ATOM
M  V30 1 C -1.988595 0.013750 0.000000 0
M  V30 2 C -1.988595 -0.808385 0.000000 0
M  V30 3 C -1.276459 -1.219167 0.000000 0
M  V30 4 C -0.564324 -0.808385 0.000000 0
M  V30 5 C -0.564324 0.013750 0.000000 0
M  V30 6 C -1.276459 0.425105 0.000000 0
M  V30 7 C 0.147239 -1.219167 0.000000 0
M  V30 8 C 0.859375 -0.808385 0.000000 0
M  V30 9 C 0.859375 0.013750 0.000000 0
M  V30 10 O 0.147239 0.425105 0.000000 0
M  V30 11 O 1.571511 0.425105 0.000000 0
M  V30 12 C 1.571511 -1.219167 0.000000 0
M  V30 13 O -2.700730 0.425105 0.000000 0
M  V30 14 C -1.276459 1.247240 0.000000 0
M  V30 15 N -1.988595 1.658021 0.000000 0
M  V30 16 C -2.201147 2.452658 0.000000 0
M  V30 17 C -2.995210 2.239532 0.000000 0
M  V30 18 C -2.782658 1.445470 0.000000 0
M  V30 19 C 1.571511 -2.041303 0.000000 0
M  V30 20 C 2.283647 -2.452658 0.000000 0
M  V30 21 C 2.995210 -2.041303 0.000000 0
M  V30 22 C 2.995210 -1.219167 0.000000 0
M  V30 23 C 2.283647 -0.808385 0.000000 0
M  V30 END ATOM
M  V30 BEGIN BOND
M  V30 1 2 1 2
M  V30 2 1 2 3
M  V30 3 2 3 4
M  V30 4 1 4 5
M  V30 5 2 5 6
M  V30 6 1 6 1
M  V30 7 1 4 7
M  V30 8 2 7 8
M  V30 9 1 8 9
M  V30 10 1 9 10
M  V30 11 1 10 5
M  V30 12 2 9 11
M  V30 13 1 8 12
M  V30 14 1 1 13
M  V30 15 1 6 14
M  V30 16 1 14 15
M  V30 17 1 15 16
M  V30 18 1 16 17
M  V30 19 1 18 15
M  V30 20 2 12 19
M  V30 21 1 19 20
M  V30 22 2 20 21
M  V30 23 1 21 22
M  V30 24 2 22 23
M  V30 25 1 23 12
M  V30 26 1 17 18
M  V30 END BOND
M  V30 END CTAB
M  END
$$$$
cou_series.sdf
  ChemDraw06212321072D

  0  0  0     0  0              0 V3000
M  V30 BEGIN CTAB
M  V30 COUNTS 24 27 0 0 0
M  V30 BEGIN ATOM
M  V30 1 C -2.345808 0.014322 0.000000 0
M  V30 2 C -2.345808 -0.807814 0.000000 0
M  V30 3 C -1.633673 -1.218595 0.000000 0
M  V30 4 C -0.921536 -0.807814 0.000000 0
M  V30 5 C -0.921536 0.014322 0.000000 0
M  V30 6 C -1.633673 0.425677 0.000000 0
M  V30 7 C -0.209974 -1.218595 0.000000 0
M  V30 8 C 0.502162 -0.807814 0.000000 0
M  V30 9 C 0.502162 0.014322 0.000000 0
M  V30 10 O -0.209974 0.425677 0.000000 0
M  V30 11 O 1.214298 0.425677 0.000000 0
M  V30 12 C 1.214298 -1.218595 0.000000 0
M  V30 13 O -3.057944 0.425677 0.000000 0
M  V30 14 C -1.633673 1.247813 0.000000 0
M  V30 15 N -2.345808 1.658594 0.000000 0
M  V30 16 C -2.558360 2.453230 0.000000 0
M  V30 17 C -3.352423 2.240105 0.000000 0
M  V30 18 C -3.139871 1.446042 0.000000 0
M  V30 19 C 1.214298 -2.040730 0.000000 0
M  V30 20 C 1.926433 -2.452085 0.000000 0
M  V30 21 C 2.637996 -2.040730 0.000000 0
M  V30 22 C 2.637996 -1.218595 0.000000 0
M  V30 23 C 1.926433 -0.807814 0.000000 0
M  V30 24 O 3.352423 -2.453230 0.000000 0
M  V30 END ATOM
M  V30 BEGIN BOND
M  V30 1 2 1 2
M  V30 2 1 2 3
M  V30 3 2 3 4
M  V30 4 1 4 5
M  V30 5 2 5 6
M  V30 6 1 6 1
M  V30 7 1 4 7
M  V30 8 2 7 8
M  V30 9 1 8 9
M  V30 10 1 9 10
M  V30 11 1 10 5
M  V30 12 2 9 11
M  V30 13 1 8 12
M  V30 14 1 1 13
M  V30 15 1 6 14
M  V30 16 1 14 15
M  V30 17 1 15 16
M  V30 18 1 16 17
M  V30 19 1 18 15
M  V30 20 2 12 19
M  V30 21 1 19 20
M  V30 22 2 20 21
M  V30 23 1 21 22
M  V30 24 2 22 23
M  V30 25 1 23 12
M  V30 26 1 17 18
M  V30 27 1 21 24
M  V30 END BOND
M  V30 END CTAB
M  END
$$$$
cou_series.sdf
  ChemDraw06212321072D

  0  0  0     0  0              0 V3000
M  V30 BEGIN CTAB
M  V30 COUNTS 27 30 1 0 0
M  V30 BEGIN ATOM
M  V30 1 C -2.701876 0.370391 0.000000 0
M  V30 2 C -2.701876 -0.451746 0.000000 0
M  V30 3 C -1.989741 -0.862527 0.000000 0
M  V30 4 C -1.277604 -0.451746 0.000000 0
M  V30 5 C -1.277604 0.370391 0.000000 0
M  V30 6 C -1.989741 0.781745 0.000000 0
M  V30 7 C -0.566042 -0.862527 0.000000 0
M  V30 8 C 0.146094 -0.451746 0.000000 0
M  V30 9 C 0.146094 0.370391 0.000000 0
M  V30 10 O -0.566042 0.781745 0.000000 0
M  V30 11 O 0.858230 0.781745 0.000000 0
M  V30 12 C 0.858230 -0.862527 0.000000 0
M  V30 13 O -3.414012 0.781745 0.000000 0
M  V30 14 C -1.989741 1.603881 0.000000 0
M  V30 15 N -2.701876 2.014662 0.000000 0
M  V30 16 C -2.914428 2.809298 0.000000 0
M  V30 17 C -3.708491 2.596173 0.000000 0
M  V30 18 C -3.495939 1.802110 0.000000 0
M  V30 19 C 0.858230 -1.684662 0.000000 0
M  V30 20 C 1.570365 -2.096017 0.000000 0
M  V30 21 C 2.281928 -1.684662 0.000000 0
M  V30 22 C 2.281928 -0.862527 0.000000 0
M  V30 23 C 1.570365 -0.451746 0.000000 0
M  V30 24 C 2.996355 -2.097162 0.000000 0
M  V30 25 F 2.585574 -2.809298 0.000000 0
M  V30 26 F 3.708491 -2.508517 0.000000 0
M  V30 27 F 3.407710 -1.385027 0.000000 0
M  V30 END ATOM
M  V30 BEGIN BOND
M  V30 1 1 24 25
M  V30 2 1 24 26
M  V30 3 1 24 27
M  V30 4 1 21 24
M  V30 5 2 1 2
M  V30 6 1 2 3
M  V30 7 2 3 4
M  V30 8 1 4 5
M  V30 9 2 5 6
M  V30 10 1 6 1
M  V30 11 1 4 7
M  V30 12 2 7 8
M  V30 13 1 8 9
M  V30 14 1 9 10
M  V30 15 1 10 5
M  V30 16 2 9 11
M  V30 17 1 8 12
M  V30 18 1 1 13
M  V30 19 1 6 14
M  V30 20 1 14 15
M  V30 21 1 15 16
M  V30 22 1 16 17
M  V30 23 1 18 15
M  V30 24 2 12 19
M  V30 25 1 19 20
M  V30 26 2 20 21
M  V30 27 1 21 22
M  V30 28 2 22 23
M  V30 29 1 23 12
M  V30 30 1 17 18
M  V30 END BOND
M  V30 BEGIN SGROUP
M  V30 1 SUP 1 ATOMS=(4 24 25 26 27) XBONDS=(1 4) LABEL=CF3 CSTATE=(4 4 -
M  V30 -0.714427 0.412500 0)
M  V30 END SGROUP
M  V30 END CTAB
M  END
$$$$
cou_series.sdf
  ChemDraw06212321072D

  0  0  0     0  0              0 V3000
M  V30 BEGIN CTAB
M  V30 COUNTS 28 31 1 0 0
M  V30 BEGIN ATOM
M  V30 1 C -2.545756 0.272709 0.000000 0
M  V30 2 C -2.545756 -0.546563 0.000000 0
M  V30 3 C -1.835912 -0.956198 0.000000 0
M  V30 4 C -1.126642 -0.546563 0.000000 0
M  V30 5 C -1.126642 0.272709 0.000000 0
M  V30 6 C -1.835912 0.682344 0.000000 0
M  V30 7 C -0.417370 -0.956198 0.000000 0
M  V30 8 C 0.292474 -0.546563 0.000000 0
M  V30 9 C 0.292474 0.272709 0.000000 0
M  V30 10 O -0.417370 0.682344 0.000000 0
M  V30 11 O 1.001745 0.682344 0.000000 0
M  V30 12 C 1.001745 -0.956198 0.000000 0
M  V30 13 O -3.255028 0.682344 0.000000 0
M  V30 14 C -1.835912 1.501615 0.000000 0
M  V30 15 N -2.545756 1.911250 0.000000 0
M  V30 16 C -2.631121 2.725938 0.000000 0
M  V30 17 C -3.293985 1.578386 0.000000 0
M  V30 18 C 1.001745 -1.775469 0.000000 0
M  V30 19 C 1.711589 -2.185105 0.000000 0
M  V30 20 C 2.420861 -1.775469 0.000000 0
M  V30 21 C 2.420861 -0.956198 0.000000 0
M  V30 22 C 1.711589 -0.546563 0.000000 0
M  V30 23 C -3.842267 2.186824 0.000000 0
M  V30 24 C -3.432632 2.896668 0.000000 0
M  V30 25 C 3.130705 -2.185105 0.000000 0
M  V30 26 F 2.719350 -2.896668 0.000000 0
M  V30 27 F 3.842267 -2.595887 0.000000 0
M  V30 28 F 3.541486 -1.472969 0.000000 0
M  V30 END ATOM
M  V30 BEGIN BOND
M  V30 1 1 25 26
M  V30 2 1 25 27
M  V30 3 1 25 28
M  V30 4 1 20 25
M  V30 5 2 1 2
M  V30 6 1 2 3
M  V30 7 2 3 4
M  V30 8 1 4 5
M  V30 9 2 5 6
M  V30 10 1 6 1
M  V30 11 1 4 7
M  V30 12 2 7 8
M  V30 13 1 8 9
M  V30 14 1 9 10
M  V30 15 1 10 5
M  V30 16 2 9 11
M  V30 17 1 8 12
M  V30 18 1 1 13
M  V30 19 1 6 14
M  V30 20 1 14 15
M  V30 21 1 15 16
M  V30 22 1 17 15
M  V30 23 2 12 18
M  V30 24 1 18 19
M  V30 25 2 19 20
M  V30 26 1 20 21
M  V30 27 2 21 22
M  V30 28 1 22 12
M  V30 29 1 17 23
M  V30 30 1 23 24
M  V30 31 1 24 16
M  V30 END BOND
M  V30 BEGIN SGROUP
M  V30 1 SUP 1 ATOMS=(4 25 26 27 28) XBONDS=(1 4) LABEL=CF3 CSTATE=(4 4 -
M  V30 -0.709844 0.409636 0)
M  V30 END SGROUP
M  V30 END CTAB
M  END
$$$$
cou_series.sdf
  ChemDraw06212321072D

  0  0  0     0  0              0 V3000
M  V30 BEGIN CTAB
M  V30 COUNTS 25 28 0 0 0
M  V30 BEGIN ATOM
M  V30 1 C -2.189975 -0.083073 0.000000 0
M  V30 2 C -2.189975 -0.902344 0.000000 0
M  V30 3 C -1.480131 -1.311979 0.000000 0
M  V30 4 C -0.770860 -0.902344 0.000000 0
M  V30 5 C -0.770860 -0.083073 0.000000 0
M  V30 6 C -1.480131 0.326562 0.000000 0
M  V30 7 C -0.061589 -1.311979 0.000000 0
M  V30 8 C 0.648255 -0.902344 0.000000 0
M  V30 9 C 0.648255 -0.083073 0.000000 0
M  V30 10 O -0.061589 0.326562 0.000000 0
M  V30 11 O 1.357527 0.326562 0.000000 0
M  V30 12 C 1.357527 -1.311979 0.000000 0
M  V30 13 O -2.899246 0.326562 0.000000 0
M  V30 14 C -1.480131 1.145834 0.000000 0
M  V30 15 N -2.189975 1.555469 0.000000 0
M  V30 16 C -2.275340 2.370157 0.000000 0
M  V30 17 C -2.938204 1.222604 0.000000 0
M  V30 18 C 1.357527 -2.131251 0.000000 0
M  V30 19 C 2.067371 -2.540887 0.000000 0
M  V30 20 C 2.776642 -2.131251 0.000000 0
M  V30 21 C 2.776642 -1.311979 0.000000 0
M  V30 22 C 2.067371 -0.902344 0.000000 0
M  V30 23 O 3.486486 -2.540887 0.000000 0
M  V30 24 C -3.486486 1.831043 0.000000 0
M  V30 25 C -3.076851 2.540887 0.000000 0
M  V30 END ATOM
M  V30 BEGIN BOND
M  V30 1 2 1 2
M  V30 2 1 2 3
M  V30 3 2 3 4
M  V30 4 1 4 5
M  V30 5 2 5 6
M  V30 6 1 6 1
M  V30 7 1 4 7
M  V30 8 2 7 8
M  V30 9 1 8 9
M  V30 10 1 9 10
M  V30 11 1 10 5
M  V30 12 2 9 11
M  V30 13 1 8 12
M  V30 14 1 1 13
M  V30 15 1 6 14
M  V30 16 1 14 15
M  V30 17 1 15 16
M  V30 18 1 17 15
M  V30 19 2 12 18
M  V30 20 1 18 19
M  V30 21 2 19 20
M  V30 22 1 20 21
M  V30 23 2 21 22
M  V30 24 1 22 12
M  V30 25 1 20 23
M  V30 26 1 17 24
M  V30 27 1 24 25
M  V30 28 1 25 16
M  V30 END BOND
M  V30 END CTAB
M  END
$$$$
cou_series.sdf
  ChemDraw06212321072D

  0  0  0     0  0              0 V3000
M  V30 BEGIN CTAB
M  V30 COUNTS 24 27 0 0 0
M  V30 BEGIN ATOM
M  V30 1 C -1.835053 -0.083073 0.000000 0
M  V30 2 C -1.835053 -0.902345 0.000000 0
M  V30 3 C -1.125209 -1.311980 0.000000 0
M  V30 4 C -0.415938 -0.902345 0.000000 0
M  V30 5 C -0.415938 -0.083073 0.000000 0
M  V30 6 C -1.125209 0.326563 0.000000 0
M  V30 7 C 0.293334 -1.311980 0.000000 0
M  V30 8 C 1.003178 -0.902345 0.000000 0
M  V30 9 C 1.003178 -0.083073 0.000000 0
M  V30 10 O 0.293334 0.326563 0.000000 0
M  V30 11 O 1.712448 0.326563 0.000000 0
M  V30 12 C 1.712448 -1.311980 0.000000 0
M  V30 13 O -2.544324 0.326563 0.000000 0
M  V30 14 C -1.125209 1.145833 0.000000 0
M  V30 15 N -1.835053 1.555469 0.000000 0
M  V30 16 C -1.920417 2.370157 0.000000 0
M  V30 17 C -2.583283 1.222605 0.000000 0
M  V30 18 C 1.712448 -2.131251 0.000000 0
M  V30 19 C 2.422293 -2.540886 0.000000 0
M  V30 20 C 3.131564 -2.131251 0.000000 0
M  V30 21 C 3.131564 -1.311980 0.000000 0
M  V30 22 C 2.422293 -0.902345 0.000000 0
M  V30 23 C -3.131564 1.831042 0.000000 0
M  V30 24 C -2.721928 2.540886 0.000000 0
M  V30 END ATOM
M  V30 BEGIN BOND
M  V30 1 2 1 2
M  V30 2 1 2 3
M  V30 3 2 3 4
M  V30 4 1 4 5
M  V30 5 2 5 6
M  V30 6 1 6 1
M  V30 7 1 4 7
M  V30 8 2 7 8
M  V30 9 1 8 9
M  V30 10 1 9 10
M  V30 11 1 10 5
M  V30 12 2 9 11
M  V30 13 1 8 12
M  V30 14 1 1 13
M  V30 15 1 6 14
M  V30 16 1 14 15
M  V30 17 1 15 16
M  V30 18 1 17 15
M  V30 19 2 12 18
M  V30 20 1 18 19
M  V30 21 2 19 20
M  V30 22 1 20 21
M  V30 23 2 21 22
M  V30 24 1 22 12
M  V30 25 1 17 23
M  V30 26 1 23 24
M  V30 27 1 24 16
M  V30 END BOND
M  V30 END CTAB
M  END
$$$$
