untitled.sdf
  ChemDraw05192411312D

  8  9  0  0  0  0  0  0  0  0999 V2000
   -0.3020   -0.4125    0.0000 C   0  0  0  0  0  0  0  0  0  0  0  0
   -1.1270   -0.4125    0.0000 C   0  0  0  0  0  0  0  0  0  0  0  0
   -1.1270    0.4125    0.0000 C   0  0  0  0  0  0  0  0  0  0  0  0
   -0.3020    0.4125    0.0000 C   0  0  0  0  0  0  0  0  0  0  0  0
    0.4125   -0.8250    0.0000 C   0  0  0  0  0  0  0  0  0  0  0  0
    1.1270   -0.4125    0.0000 C   0  0  0  0  0  0  0  0  0  0  0  0
    1.1270    0.4125    0.0000 C   0  0  0  0  0  0  0  0  0  0  0  0
    0.4125    0.8250    0.0000 C   0  0  0  0  0  0  0  0  0  0  0  0
  1  2  1  0      
  2  3  1  0      
  3  4  1  0      
  1  4  1  0      
  1  5  1  0      
  5  6  1  0      
  6  7  1  0      
  7  8  1  0      
  8  4  1  0      
M  END
$$$$
